15
0 1
C         2.462936   -0.214804   -0.300748
C         1.407187    0.338384    0.269680
C         0.072209   -0.312979    0.427902
C        -1.046900    0.447078   -0.280380
H         0.117175   -1.338318    0.051781
H        -0.172336   -0.380352    1.493656
C        -2.410185   -0.194281   -0.078227
H        -1.066913    1.478140    0.083615
H        -0.816471    0.504845   -1.346943
H        -2.672781   -0.233755    0.980705
H        -2.422974   -1.217316   -0.458944
H        -3.193079    0.361780   -0.594563
H         3.402078    0.314249   -0.392730
H         2.426885   -1.223340   -0.696309
H         1.486940    1.353675    0.650376
