7
0 2
C        -0.575471    0.650339    0.000005
C        -1.631762   -0.355810    0.000002
Cl         1.077223   -0.159179   -0.000004
H        -0.576112    1.271563    0.889852
H        -0.576117    1.271574   -0.889833
H        -1.958591   -0.802119   -0.927764
H        -1.958577   -0.802140    0.927764
