20
0 1
C        -0.006216    0.760175    0.000000
C         0.006216   -0.760175    0.000000
C         1.405817   -1.356009   -0.000000
C         1.405817   -2.876547    0.000000
H         1.952104   -0.989308    0.873967
H         1.952104   -0.989308   -0.873967
H         0.893108   -3.268781    0.880461
H         2.419732   -3.277942   -0.000000
H         0.893108   -3.268781   -0.880461
H        -0.541600   -1.126856    0.874498
H        -0.541600   -1.126856   -0.874498
C        -1.405817    1.356009   -0.000000
H         0.541600    1.126856   -0.874498
H         0.541600    1.126856    0.874498
C        -1.405817    2.876547    0.000000
H        -1.952104    0.989308    0.873967
H        -1.952104    0.989308   -0.873967
H        -0.893108    3.268781    0.880461
H        -2.419732    3.277942   -0.000000
H        -0.893108    3.268781   -0.880461
