10
0 2
C         1.207605   -0.284393    0.000001
C        -0.068092    0.570392   -0.000002
H         1.246468   -0.925861   -0.880923
H         1.246468   -0.925854    0.880931
H         2.097073    0.347563   -0.000001
C        -1.309727   -0.240877    0.000000
H        -0.049708    1.222450   -0.876974
H        -0.049709    1.222456    0.876966
H        -1.734661   -0.605733    0.924965
H        -1.734649   -0.605754   -0.924962
