14
0 1
C         1.197577    0.166516    0.000000
C        -0.000000    0.871079    0.000000
C         1.169287   -1.215235    0.000000
C        -0.054520   -1.856909    0.000000
C        -1.196761   -1.075119    0.000000
N        -1.178145    0.249772    0.000000
H         2.138173    0.700437    0.000000
H         2.091106   -1.782317    0.000000
H        -0.128212   -2.935347    0.000000
H        -2.177493   -1.538670    0.000000
C        -0.033189    2.368366    0.000000
H         0.968668    2.794369    0.000000
H        -0.569794    2.730464    0.877120
H        -0.569794    2.730464   -0.877120
