8
0 1
C         0.000017    0.000002    0.249566
C         0.000048   -0.000008    1.758435
Cl         1.668460   -0.090823   -0.360973
Cl        -0.755589    1.490346   -0.360893
Cl        -0.912903   -1.399519   -0.360909
H         0.560513    0.859348    2.119719
H         0.464047   -0.915062    2.119713
H        -1.024403    0.055683    2.119736
