7
0 2
C        -0.789682    0.000000   -0.017434
C         0.690311    0.000000   -0.001905
H        -1.345994   -0.924610    0.038200
H        -1.345994    0.924610    0.038200
H         1.101129   -0.884234   -0.491848
H         1.085956   -0.000007    1.023319
H         1.101129    0.884240   -0.491837
