14
0 1
C         0.178719    0.025696    1.042642
C        -0.995889    0.097214    0.109791
O        -1.677159    1.063208   -0.091000
O        -1.229928   -1.079952   -0.505019
H        -1.998930   -0.950499   -1.079072
C         1.461138   -0.460461    0.369438
H        -0.091454   -0.652840    1.854984
H         0.309373    1.020940    1.464091
C         1.918981    0.447841   -0.761030
H         1.307549   -1.473277   -0.004616
H         2.239956   -0.522172    1.131710
H         1.174875    0.498138   -1.557800
H         2.848310    0.086615   -1.201107
H         2.089328    1.465301   -0.405080
