13
0 2
C         0.000027    1.473809    0.100251
C         0.000001    0.058155   -0.347802
H        -0.926668    2.022109    0.201986
H         0.926740    2.022096    0.201892
C         1.260939   -0.675918    0.101528
H         2.159843   -0.163000   -0.242923
H         1.282053   -1.693353   -0.291264
H         1.303826   -0.733183    1.190839
C        -1.260964   -0.675875    0.101520
H         0.000005    0.053683   -1.450140
H        -1.303860   -0.733139    1.190832
H        -1.282110   -1.693310   -0.291271
H        -2.159849   -0.162927   -0.242935
