9
0 2
N         0.927294    0.972162    0.000001
C        -0.384571    1.198979   -0.000000
C        -1.304854    0.170429   -0.000001
N        -0.866713   -1.093327   -0.000002
C         0.388744   -1.296167   -0.000000
C         1.342227   -0.283004    0.000003
H         2.406519   -0.472819    0.000001
H        -0.707425    2.232651   -0.000000
H        -2.372438    0.346907   -0.000003
