20
0 1
C         0.221158   -0.002783   -0.117399
N         0.646749    1.377151    0.389674
O         1.828099    1.586999    0.432634
O        -0.241102    2.125288    0.701320
C        -1.137723   -0.031029   -0.774226
N         1.322307   -0.405832   -1.097530
O         1.244359    0.133313   -2.172118
O         2.152421   -1.184590   -0.724501
N         0.286268   -0.958186    1.062568
O         0.596847   -0.505143    2.130685
O        -0.029089   -2.089458    0.804923
C        -2.339990   -0.012138    0.166804
H        -1.164301   -0.938147   -1.378953
H        -1.169095    0.813106   -1.461351
C        -3.634205   -0.021979   -0.631900
H        -2.302588    0.869205    0.802608
H        -2.310400   -0.887845    0.816644
H        -3.710900    0.858922   -1.270765
H        -4.495781   -0.025258    0.034127
H        -3.701918   -0.905622   -1.268502
