9
0 2
C         0.939769    0.500326   -0.000003
O         1.522014   -0.519038   -0.000016
C        -0.551077    0.729269    0.000018
C        -1.372803   -0.551381   -0.000002
H        -0.763930    1.355624   -0.869026
H        -0.763906    1.355581    0.869099
H        -1.153155   -1.154876   -0.879498
H        -2.437320   -0.318387    0.000017
H        -1.153132   -1.154918    0.879459
