11
0 2
O        -0.023737   -1.078695    0.000001
C        -1.326391   -0.721486   -0.000010
C        -1.459243    0.633270    0.000010
C        -0.159382    1.162477   -0.000011
C         0.726147    0.077058    0.000002
H        -2.040869   -1.525611   -0.000014
H        -2.388711    1.176684    0.000019
H         0.130572    2.199075   -0.000017
C         2.089447   -0.008608    0.000007
H         2.683346    0.891206    0.000003
H         2.582091   -0.968062    0.000014
