7
0 2
C        -0.789682    0.000000   -0.017434
C         0.690311    0.000010   -0.001905
H        -1.345972   -0.924625    0.038196
H        -1.346017    0.924595    0.038203
H         1.101136   -0.883936   -0.492373
H         1.085957   -0.000632    1.023319
H         1.101121    0.884538   -0.491312
