15
0 1
C         2.513193   -0.268565    0.054477
C         1.160437    0.337120    0.235520
H         2.892615   -0.674156    0.995240
H         3.237360    0.477158   -0.281747
H         2.491511   -1.074916   -0.678601
C         0.065295   -0.037748   -0.404365
C        -1.292652    0.558933   -0.216705
C        -2.318932   -0.460298    0.269387
H        -1.635997    0.981389   -1.166224
H        -1.229732    1.390103    0.488989
H        -2.400583   -1.296552   -0.427258
H        -3.307403   -0.009980    0.366349
H        -2.033023   -0.865853    1.240570
H         1.089057    1.151106    0.953190
H         0.132152   -0.854951   -1.120397
