8
0 1
C        -1.161504   -0.000003   -0.000042
C         0.391677   -0.000004    0.000013
F        -1.625676    0.100680    1.239925
F        -1.625603   -1.124198   -0.532864
F        -1.625590    1.023508   -0.707250
Cl         0.951145    1.510214    0.715699
Cl         0.951285   -0.135316   -1.665668
Cl         0.951146   -1.374890    0.950079
