16
0 1
C         0.162228   -1.172575   -0.012127
C         1.592624   -0.607948   -0.038283
C         1.361217    0.873494   -0.158610
H         2.190185   -1.014672   -0.855748
H         2.135824   -0.832981    0.885358
C         0.103532    1.197488    0.093238
C        -0.745060   -0.004101    0.421233
H         0.058677   -2.046254    0.630427
H        -0.122563   -1.476019   -1.022074
H         2.151625    1.577339   -0.383303
H        -0.289169    2.206428    0.104962
C        -2.113637   -0.009790   -0.242459
H        -0.895587   -0.035923    1.507710
H        -2.717528    0.838617    0.083486
H        -2.662787   -0.921275   -0.000519
H        -2.014099    0.045328   -1.328252
