14
0 2
C        -0.000000    1.269593   -0.000000
C        -0.731608   -0.981575    0.223841
C         0.731608   -0.981575   -0.223842
C         1.225974    0.430732    0.121227
H         0.784776   -1.132125   -1.304655
H         1.321212   -1.768443    0.245678
H         1.622923    0.456969    1.146166
H         2.043036    0.764980   -0.523736
C        -1.225974    0.430731   -0.121226
H        -0.000001    2.349807   -0.000003
H        -1.622926    0.456969   -1.146164
H        -2.043035    0.764978    0.523739
H        -0.784775   -1.132128    1.304654
H        -1.321210   -1.768443   -0.245680
