10
0 2
C        -1.207605   -0.284393    0.000003
C         0.068092    0.570392   -0.000003
H        -2.097073    0.347563   -0.000002
H        -1.246468   -0.925852    0.880934
H        -1.246468   -0.925864   -0.880920
C         1.309727   -0.240877    0.000000
H         1.734646   -0.605761   -0.924961
H         1.734665   -0.605726    0.924966
H         0.049709    1.222458    0.876962
H         0.049707    1.222447   -0.876978
