8
0 1
C         0.787866    0.000004   -0.000006
C        -0.787866   -0.000004    0.000006
Cl         1.386857   -1.325766   -1.002421
Cl         1.386854   -0.205223    1.649358
Cl         1.386828    1.531021   -0.646946
Cl        -1.386854    0.205221   -1.649358
Cl        -1.386858    1.325767    1.002419
Cl        -1.386827   -1.531020    0.646948
