7
0 2
C        -0.031615    0.132754    0.000002
O        -0.262157    1.313976   -0.000001
O        -1.059059   -0.752076   -0.000001
C         1.308920   -0.408565    0.000001
H         1.514000   -1.470242    0.000001
H         2.130364    0.289956    0.000000
H        -0.738469   -1.660051   -0.000002
