8
0 1
C         0.932504   -0.222524   -0.321934
C        -0.265177    0.418377    0.359294
H         0.837523   -0.234515   -1.408879
F         1.085031   -1.483088    0.135267
F         2.036868    0.478861    0.020494
Cl        -1.741265   -0.449456   -0.062885
F        -0.354281    1.704057   -0.065491
H        -0.148527    0.401689    1.441328
