23
0 1
C         0.364150    0.242949   -0.367691
C        -1.074271    0.538096   -0.703361
N        -2.013511   -0.281471    0.037160
H        -1.236544    0.343683   -1.766574
H        -1.268360    1.613744   -0.548781
C         1.262313    1.269303   -0.121026
C         2.593206    0.996761    0.155347
C         3.037889   -0.312228    0.193549
C         2.144751   -1.345741   -0.046026
C         0.819330   -1.069470   -0.325578
H         0.114841   -1.872111   -0.499291
H         0.915816    2.295502   -0.141025
H         3.280985    1.809946    0.346968
H         4.074986   -0.528966    0.412830
H         2.485316   -2.372569   -0.014909
C        -1.994312    0.013165    1.453602
H        -2.317570    1.045632    1.670299
H        -0.989438   -0.117751    1.851224
H        -2.661220   -0.669056    1.980355
C        -3.349007   -0.181343   -0.504987
H        -3.348068   -0.472400   -1.555531
H        -3.763139    0.838830   -0.432377
H        -4.017314   -0.853147    0.033721
