7
0 2
C        -0.689567   -0.317343    0.000002
O        -1.822358   -0.006503    0.000003
O         0.364518    0.478838   -0.000006
C         1.648547   -0.161918    0.000001
H         2.376639    0.642742   -0.000060
H         1.766080   -0.772978   -0.892465
H         1.766119   -0.772877    0.892531
