13
0 1
C         1.542597   -0.000001    0.090212
N         2.630489    0.000000   -0.267111
C         0.154616    0.000001    0.509390
C        -0.790683   -1.078505   -0.076293
C        -1.887741   -0.000001   -0.170657
H        -0.976403   -1.953836    0.541376
H        -0.450985   -1.400532   -1.058883
C        -0.790685    1.078505   -0.076294
H        -2.530859   -0.000001    0.708632
H        -2.512279   -0.000001   -1.060558
H        -0.450988    1.400532   -1.058884
H        -0.976406    1.953836    0.541375
H         0.115869    0.000001    1.598567
