21
0 1
C         2.485627   -0.325127   -0.706485
C         1.100369    0.140441   -0.276838
H         3.017988    0.460403   -1.244716
H         2.427037   -1.198209   -1.358448
H         3.089318   -0.599142    0.162461
C         1.198930    1.384584    0.596838
H         1.706453    1.157087    1.538063
H         0.218268    1.795148    0.835202
H         1.768480    2.167404    0.094082
C         0.355596   -0.996582    0.420819
H         0.538151    0.407066   -1.177084
C        -1.094733   -0.694755    0.801994
H         0.906662   -1.278133    1.323687
H         0.370007   -1.875529   -0.231021
C        -1.957720   -0.377624   -0.376487
H        -1.141417    0.125079    1.520858
H        -1.501340   -1.574190    1.310534
C        -2.666986    0.726513   -0.530822
H        -1.982564   -1.131535   -1.160032
H        -2.668162    1.506379    0.221955
H        -3.275379    0.893478   -1.409655
