19
0 1
C        -2.143807    0.000001    0.070893
N        -3.256310   -0.000000   -0.198459
C        -0.719413    0.000001    0.391458
C         2.132432   -0.000001   -0.338762
C         1.449383   -1.257947    0.184033
C        -0.037932   -1.266138   -0.143252
H         1.580303   -1.316728    1.269350
H         1.920490   -2.148818   -0.233890
H        -0.180407   -1.308027   -1.226245
H        -0.522049   -2.149427    0.274099
C        -0.037929    1.266143   -0.143237
H        -0.640917   -0.000006    1.483389
C         1.449387    1.257941    0.184049
H         2.098504    0.000006   -1.432819
H         3.187160   -0.000004   -0.059159
H        -0.522040    2.149429    0.274124
H        -0.180402    1.308045   -1.226230
H         1.920498    2.148816   -0.233862
H         1.580306    1.316708    1.269366
