16
0 2
C         1.875286    0.000002   -0.478988
C         0.895783   -0.000002    0.703408
H         2.909144    0.000001   -0.130982
H         1.732871    0.881592   -1.105425
H         1.732871   -0.881584   -1.105431
C        -0.535294   -0.000001    0.284637
H         1.097860    0.877806    1.323757
H         1.097860   -0.877814    1.323751
C        -1.164431    1.277342   -0.144656
H        -0.972063    1.494926   -1.206318
H        -0.783583    2.126768    0.425186
H        -2.250403    1.248028   -0.030891
C        -1.164430   -1.277341   -0.144665
H        -0.972061   -1.494918   -1.206328
H        -2.250402   -1.248029   -0.030901
H        -0.783581   -2.126771    0.425171
