7
0 2
C         0.689567   -0.317343    0.000001
O         1.822358   -0.006503    0.000001
O        -0.364518    0.478838   -0.000002
C        -1.648547   -0.161918    0.000000
H        -1.766108   -0.772907    0.892511
H        -1.766092   -0.772948   -0.892485
H        -2.376639    0.642742   -0.000024
