8
0 2
C        -1.832723    0.030001   -0.000001
N        -0.633169   -0.603806    0.000002
H        -2.710074   -0.590851    0.000002
H        -1.839010    1.103441    0.000003
N         0.558887    0.050857   -0.000000
O         0.524856    1.264021    0.000001
O         1.547368   -0.666199   -0.000002
H        -0.512395   -1.604533   -0.000003
