17
0 2
C         0.049996    0.784654    1.280450
C         0.049996   -0.746011    1.257387
C         0.536387    1.362161    0.000000
H         0.638152    1.155911    2.121403
H        -0.983890    1.121690    1.464671
C        -0.624097   -1.281398   -0.000000
H        -0.445407   -1.131587    2.150564
H         1.083144   -1.103921    1.287849
C         0.049996   -0.746011   -1.257387
H        -1.678919   -0.985429   -0.000000
H        -0.606862   -2.373103   -0.000000
C         0.049996    0.784654   -1.280450
H        -0.445407   -1.131587   -2.150564
H         1.083144   -1.103921   -1.287849
H         0.638152    1.155911   -2.121403
H        -0.983890    1.121690   -1.464671
H         1.028133    2.326053    0.000000
