24
0 1
C         0.267503   -0.237910   -0.311798
C         1.340694   -1.220846    0.149628
C         0.817294    1.111683    0.167692
C         2.650045   -0.501257   -0.161167
H         1.260791   -2.196211   -0.332055
H         1.240956   -1.379690    1.228352
C         2.354925    0.988251    0.110617
H         2.902853   -0.647020   -1.213292
H         3.490784   -0.876088    0.421960
H         0.489288    1.280179    1.197068
H         0.445063    1.948759   -0.421704
H         2.801558    1.310941    1.051006
H         2.781012    1.620956   -0.667528
C        -1.133817   -0.564836    0.174147
H         0.262470   -0.239321   -1.408859
C        -2.208723    0.387466   -0.330108
H        -1.136050   -0.565020    1.270188
H        -1.391241   -1.584440   -0.130713
C        -3.603223    0.005079    0.140283
H        -2.183302    0.408972   -1.423793
H        -1.979947    1.404016   -0.000800
H        -3.873044   -0.995222   -0.204026
H        -4.357174    0.699414   -0.232046
H        -3.662208    0.004001    1.230472
