20
0 1
C        -2.169779    0.036252   -0.000007
C        -0.866746    0.822649   -0.000007
C         0.432292   -0.000289    0.000001
C         1.608531    0.975449    0.000001
H         1.584691    1.617874   -0.882373
H         2.560438    0.441379    0.000006
H         1.584686    1.617882    0.882369
H        -2.261589   -0.599275    0.881001
H        -0.849529    1.480951   -0.873738
H        -2.261583   -0.599284   -0.881008
C         0.517815   -0.878121   -1.248002
H         0.434314   -0.277416   -2.156080
H        -0.270449   -1.630779   -1.268679
H         1.473928   -1.403410   -1.282482
C         0.517807   -0.878110    1.248013
H         1.473920   -1.403398    1.282504
H        -0.270457   -1.630768    1.268691
H         0.434299   -0.277397    2.156085
H        -3.022654    0.715699   -0.000013
H        -0.849535    1.480959    0.873718
