15
0 1
C        -1.850339   -0.168447    0.004590
N        -2.496792   -1.099851   -0.150065
C        -1.007177    1.007907    0.187203
C         0.416509    0.798042   -0.332739
H        -0.991051    1.250104    1.251829
H        -1.483611    1.845482   -0.324054
C         1.175316   -0.296224    0.401419
H         0.949764    1.746387   -0.235200
H         0.377075    0.568702   -1.399955
C         2.587367   -0.480654   -0.130252
H         0.624845   -1.236194    0.317920
H         1.211152   -0.054772    1.467834
H         2.575538   -0.755667   -1.186340
H         3.114124   -1.266518    0.410655
H         3.169655    0.437686   -0.033563
