18
0 1
N        -1.072624    0.168690   -0.146963
C        -0.015628   -0.816294   -0.132713
C        -2.314450   -0.366854   -0.660969
H        -2.165732   -0.748970   -1.670669
H        -3.064356    0.422940   -0.704601
H        -2.716321   -1.183150   -0.038951
C        -1.254943    0.770635    1.157606
H        -1.993746    1.569280    1.096558
H        -0.319189    1.203496    1.512199
H        -1.593427    0.041962    1.911562
C         1.374546   -0.213640   -0.019109
H        -0.032023   -1.358127   -1.083415
H        -0.123282   -1.560764    0.669938
O         2.219759   -0.752394    0.648816
C         1.651313    1.031428   -0.813403
H         1.034962    1.853920   -0.451541
H         1.373818    0.879959   -1.857723
H         2.704566    1.286123   -0.733617
