21
0 1
C         0.763180    0.350371    0.625534
C         1.569516    1.262314   -0.045626
C         2.731475    0.854274   -0.675932
C         3.107116   -0.478899   -0.645163
C         2.314274   -1.396128    0.021973
C         1.152012   -0.982449    0.652174
H         0.534576   -1.705042    1.171641
H         4.016201   -0.799618   -1.135951
H         2.601295   -2.438885    0.054876
H         1.286281    2.308149   -0.069141
H         3.348664    1.579637   -1.189555
C        -1.658309    1.017777    0.280165
C        -0.519050    0.796429    1.276436
H        -0.831663    0.060069    2.016755
H        -0.351189    1.731649    1.812447
C        -2.040763   -0.227523   -0.467145
H        -1.378112    1.769778   -0.459487
H        -2.551490    1.375240    0.795623
F        -3.085683    0.035302   -1.301943
F        -2.464804   -1.190648    0.405533
H        -1.236899   -0.659850   -1.064017
