15
0 1
C        -0.766184    1.448759    0.096593
C        -0.277677    0.000006    0.000008
C         1.192313    0.000007   -0.000000
N         2.336956    0.000008    0.000008
H        -0.414390    1.920685    1.013129
H        -1.856456    1.462676    0.097492
H        -0.414343    2.038197   -0.749142
C        -0.766172   -0.808041    1.206353
H        -0.414334   -0.370343    2.139695
H        -0.414376   -1.837746    1.156774
H        -1.856440   -0.815787    1.217949
C        -0.766156   -0.640729   -1.302956
H        -1.856430   -0.646894   -1.315471
H        -0.414326   -1.667882   -1.390542
H        -0.414345   -0.082970   -2.169929
