11
0 2
C        -1.078597    0.000009    0.000003
N        -2.237257    0.000003   -0.000011
C         0.307515    0.000000    0.000002
C         1.056358   -1.287103   -0.000001
H         0.391696   -2.147277   -0.000045
H         1.706834   -1.350936    0.877464
H         1.706900   -1.350893   -0.877421
C         1.056372    1.287096    0.000006
H         1.706859    1.350916   -0.877453
H         1.706905    1.350884    0.877432
H         0.391720    2.147277    0.000038
