24
0 1
C        -1.854810    1.035635   -0.000005
C        -1.754596   -0.342859   -0.000004
C        -0.481948   -0.906221   -0.000002
C         0.669925   -0.138075    0.000001
C        -0.712430    1.820753   -0.000002
C         0.552354    1.259954    0.000002
H        -0.809446    2.899751   -0.000003
C         2.043013   -0.763326    0.000001
C         2.094570   -2.281325   -0.000003
H         2.594521   -0.389058    0.867658
H         2.594523   -0.389053   -0.867651
H         1.608572   -2.700985    0.881531
H         3.129824   -2.621950   -0.000002
H         1.608575   -2.700980   -0.881540
H        -2.830388    1.505864   -0.000009
C         1.768194    2.139751    0.000003
H         1.484331    3.190675    0.000008
H         2.394998    1.962301   -0.876479
H         2.395003    1.962292    0.876479
H        -0.400668   -1.985321   -0.000004
C        -2.973371   -1.219890    0.000005
H        -3.886419   -0.626206   -0.000118
H        -2.994476   -1.866761    0.878809
H        -2.994357   -1.866947   -0.878664
