12
0 1
C         0.690617   -0.343765    0.000019
C        -0.690617    0.343765   -0.000024
O         0.746986   -1.545241    0.000063
O        -0.746986    1.545241   -0.000071
C         1.884306    0.555788    0.000009
H         1.856620    1.210081    0.871953
H         1.856700    1.209939   -0.872046
H         2.790919   -0.042334    0.000094
C        -1.884306   -0.555788   -0.000000
H        -1.856702   -1.209920    0.872068
H        -1.856618   -1.210100   -0.871930
H        -2.790919    0.042334   -0.000098
