10
0 2
C        -1.207605   -0.284393    0.000003
C         0.068092    0.570392   -0.000005
H        -2.097073    0.347563   -0.000004
H        -1.246469   -0.925849    0.880937
H        -1.246468   -0.925866   -0.880918
C         1.309727   -0.240877    0.000002
H         0.049709    1.222461    0.876958
H         0.049708    1.222444   -0.876982
H         1.734643   -0.605768   -0.924958
H         1.734668   -0.605719    0.924969
