7
0 2
C        -0.021004    1.733570   -0.154225
C         0.013596    0.395466    0.424938
H         0.262091    1.876657   -1.185665
Cl        -1.458807   -0.538881   -0.078712
Cl         1.475469   -0.495506   -0.059064
H        -0.486924    2.537252    0.395956
H        -0.013970    0.396458    1.507626
