18
0 1
C        -0.906572   -1.138317   -0.458419
C        -2.218282   -1.186024   -0.016410
C        -2.871306   -0.019906    0.343436
C        -2.207202    1.192795    0.258835
C        -0.896264    1.237222   -0.181385
C        -0.228887    0.072954   -0.546475
H        -0.401974   -2.053265   -0.744558
H        -2.712617    2.108343    0.535454
H        -0.381528    2.187987   -0.245488
H        -2.731847   -2.136306    0.041778
H        -3.896492   -0.054974    0.686415
C         2.247145   -0.015041    0.129824
O         3.412513    0.146044   -0.068524
O         1.795876   -0.342570    1.350777
H         0.831328   -0.418065    1.344975
C         1.208302    0.118305   -0.978972
H         1.426338   -0.683830   -1.685601
H         1.438088    1.050372   -1.493606
