22
0 1
C         1.857986   -0.145154   -0.000002
N         2.869996   -0.679207   -0.000016
C        -1.857984    0.145159    0.000005
N        -2.870006    0.679188   -0.000007
C        -0.564312   -0.549341    0.000006
C         0.564314    0.549346   -0.000001
C        -0.494443   -1.437911    1.249289
H        -1.264076   -2.205526    1.195836
H        -0.650721   -0.872447    2.164084
H         0.477010   -1.928500    1.298133
C        -0.494447   -1.437921   -1.249270
H        -0.650730   -0.872466   -2.164070
H        -1.264079   -2.205537   -1.195808
H         0.477006   -1.928509   -1.298114
C         0.494443    1.437917   -1.249282
H         0.650721    0.872456   -2.164079
H         1.264076    2.205533   -1.195829
H        -0.477010    1.928505   -1.298125
C         0.494451    1.437923    1.249277
H         0.650734    0.872466    2.164075
H        -0.477001    1.928513    1.298122
H         1.264084    2.205538    1.195815
