16
0 1
N        -1.734345    1.101702    0.205191
C        -2.220457   -0.130604    0.212971
C        -1.409526   -1.226334   -0.028526
N        -0.115592   -1.097766   -0.275687
C         0.385518    0.133595   -0.286190
C        -0.440392    1.226732   -0.043427
H        -0.035343    2.232620   -0.054033
H        -3.278302   -0.250518    0.414255
H        -1.816320   -2.231167   -0.023777
C         1.854426    0.285569   -0.540959
C         2.693797   -0.241844    0.618746
H         2.084160    1.336044   -0.726127
H         2.101287   -0.266735   -1.449266
H         2.494875    0.318879    1.533140
H         3.757572   -0.160091    0.396450
H         2.461431   -1.289276    0.807134
