14
0 1
C         0.700823    0.315172   -0.000006
C        -0.700823   -0.315172    0.000006
O        -0.905326   -1.492393    0.000008
O        -1.626370    0.628988   -0.000002
C        -2.978158    0.163895   -0.000001
H        -3.169327   -0.437850    0.886614
H        -3.169321   -0.437872   -0.886603
H        -3.594976    1.056246   -0.000014
O         0.905326    1.492393   -0.000018
O         1.626370   -0.628988    0.000009
C         2.978158   -0.163895    0.000004
H         3.594976   -1.056246    0.000023
H         3.169321    0.437878    0.886602
H         3.169327    0.437845   -0.886615
