11
0 2
C        -1.078595    0.000000   -0.000000
N        -2.237254    0.000000   -0.000003
C         0.307521    0.000000    0.000000
C         1.056362    1.287106    0.000003
H         1.706882    1.350914    0.877438
H         0.391695    2.147276    0.000018
H         1.706862    1.350929   -0.877445
C         1.056362   -1.287107   -0.000001
H         0.391695   -2.147276   -0.000021
H         1.706857   -1.350932    0.877452
H         1.706887   -1.350913   -0.877432
