20
0 1
C         1.121406    1.193525    0.205657
C         2.464987    1.196480   -0.127627
C         3.141148   -0.000001   -0.296435
C         0.431411    0.000002    0.375777
C         1.121405   -1.193523    0.205660
C         2.464985   -1.196481   -0.127624
H         2.986695   -2.136341   -0.251848
H         4.191860   -0.000002   -0.553908
H         0.599587    2.133347    0.341880
H         2.986697    2.136340   -0.251854
H         0.599584   -2.133344    0.341885
C        -1.037177    0.000003    0.691396
C        -1.893051   -0.000008   -0.584220
H        -1.294502    0.876232    1.287401
H        -1.294500   -0.876217    1.287416
C        -3.321377    0.000004   -0.301320
H        -1.642836   -0.874243   -1.189174
H        -1.642832    0.874213   -1.189192
C        -4.487659    0.000001   -0.042019
H        -5.526220    0.000002    0.181927
