8
0 1
C         0.938939   -0.225039   -0.000000
C        -0.451254    0.456504   -0.000000
F         1.084765   -0.978995    1.080939
F         1.880884    0.711508   -0.000002
F         1.084764   -0.978997   -1.080938
Cl        -1.745453   -0.725485    0.000002
F        -0.539285    1.231266   -1.081457
F        -0.539284    1.231269    1.081455
