18
0 1
C        -0.697152   -0.081316    0.307331
O        -1.241477   -1.320194   -0.138003
H        -2.126978   -1.418197    0.221697
C         0.687160    0.037826   -0.321613
C        -1.635311    1.057506   -0.047481
H        -0.570197   -0.114101    1.399348
H        -1.295090    2.005670    0.366365
H        -2.632409    0.866512    0.355115
H        -1.720207    1.156371   -1.130832
C         1.367121    1.351242    0.045785
H         0.837726    2.218845   -0.345683
H         2.380754    1.376454   -0.354909
H         1.441358    1.461918    1.130743
C         1.563228   -1.145062    0.072026
H         0.537384    0.010593   -1.406164
H         1.744182   -1.146176    1.150211
H         2.532131   -1.088384   -0.425812
H         1.092881   -2.089126   -0.192337
