12
0 1
C         0.673454    1.017866    0.326514
C        -0.673450    1.017835   -0.326615
N         1.547611   -0.110022   -0.143266
H         0.623368    0.921700    1.405791
H         1.217963    1.926472    0.074581
N        -1.547609   -0.110004    0.143275
H        -0.623366    0.921566   -1.405883
H        -1.217957    1.926467   -0.074768
O         2.569777   -0.276165    0.474613
O         1.186135   -0.747013   -1.105620
O        -2.569765   -0.276219   -0.474602
O        -1.186151   -0.746882    1.105712
