12
0 1
C        -0.002505    0.039524    0.363186
O         0.065057    1.361638   -0.161036
H         0.908995    1.752104    0.082803
C        -1.326203   -0.532924   -0.089605
H        -1.357610   -0.586162   -1.178757
H        -2.147107    0.099558    0.245643
H        -1.471073   -1.535556    0.313231
C         1.178792   -0.790959   -0.102221
H         0.005646    0.086854    1.459945
H         1.128370   -1.802622    0.302946
H         2.122278   -0.349156    0.225716
H         1.189538   -0.851976   -1.191399
