7
0 2
C         0.689567   -0.317343    0.000000
O         1.822358   -0.006503    0.000001
O        -0.364518    0.478838   -0.000001
C        -1.648547   -0.161918    0.000000
H        -2.376639    0.642742   -0.000009
H        -1.766103   -0.772920    0.892503
H        -1.766097   -0.772935   -0.892493
