23
0 1
C        -3.001205    0.247096    0.000000
C        -1.637700   -0.428100    0.000001
H        -3.125466    0.880611    0.880402
H        -3.125467    0.880607   -0.880405
C        -0.500013    0.583625   -0.000001
H        -1.559837   -1.077904   -0.874285
H        -1.559836   -1.077900    0.874291
C         0.932780    0.027443   -0.000000
C         1.897754    1.212783   -0.000004
H         1.749773    1.838382   -0.882346
H         2.935056    0.873046   -0.000003
H         1.749774    1.838386    0.882336
H        -0.612757    1.234056    0.874044
C         1.188405   -0.816790    1.248191
H         0.985655   -0.244908    2.156077
H         2.229801   -1.141647    1.284435
H         0.565076   -1.710778    1.267405
C         1.188404   -0.816796   -1.248188
H         0.565075   -1.710785   -1.267397
H         2.229800   -1.141653   -1.284430
H         0.985654   -0.244919   -2.156076
H        -3.810099   -0.484210    0.000002
H        -0.612758    1.234052   -0.874050
