20
0 1
C        -1.539857    0.114801    0.839036
C        -0.713825   -0.289214   -0.377801
H        -1.134770   -0.317590    1.755432
H        -1.581522    1.196203    0.967901
C         0.713825    0.289214   -0.377801
C         1.539857   -0.114801    0.839036
H         1.134770    0.317590    1.755432
H         2.565344    0.242940    0.737335
H         1.581522   -1.196203    0.967901
C         0.713825    1.805239   -0.538248
H         1.207101   -0.129180   -1.261931
H         0.292063    2.300847    0.337763
H         0.132093    2.112535   -1.409031
H         1.729956    2.181463   -0.665386
C        -0.713825   -1.805239   -0.538248
H        -1.729956   -2.181463   -0.665386
H        -0.292063   -2.300847    0.337763
H        -0.132093   -2.112535   -1.409031
H        -2.565344   -0.242940    0.737335
H        -1.207101    0.129180   -1.261931
