26
0 1
C        -0.567107   -0.513826    0.886500
C         0.567107    0.513826    0.886499
O        -0.377975   -1.559986    1.459937
O         0.377975    1.559987    1.459935
C        -1.849726   -0.164238    0.236551
C         1.849726    0.164239    0.236551
C        -2.026404    1.032960   -0.448372
C        -3.232182    1.300627   -1.071295
C        -4.262836    0.378510   -1.010122
C        -4.091263   -0.817124   -0.326869
C        -2.888993   -1.088573    0.292453
C         2.026404   -1.032961   -0.448371
C         2.888993    1.088573    0.292452
C         3.232183   -1.300629   -1.071293
C         4.262836   -0.378511   -1.010121
C         4.091263    0.817124   -0.326870
H         4.898674    1.535350   -0.280453
H         2.729428    2.014040    0.828202
H         1.230488   -1.762590   -0.482921
H         3.368969   -2.233309   -1.601326
H         5.205979   -0.591235   -1.496067
H        -4.898674   -1.535350   -0.280451
H        -2.729428   -2.014039    0.828204
H        -1.230488    1.762589   -0.482923
H        -3.368969    2.233308   -1.601328
H        -5.205979    0.591233   -1.496068
