13
0 2
C        -0.000007   -0.000010   -0.157566
C        -1.320166   -0.661028    0.015527
H        -1.573451   -0.787947    1.079898
H        -1.334579   -1.657902   -0.428982
H        -2.126983   -0.075258   -0.428854
C         1.232559   -0.812765    0.015519
H         1.469113   -0.968751    1.079882
H         2.103073   -0.326720   -0.428918
H         1.128736   -1.804347   -0.428935
C         0.087609    1.473796    0.015505
H        -0.768444    1.984708   -0.429134
H         0.998386    1.879611   -0.428742
H         0.104183    1.756652    1.079873
