17
0 1
C         0.000000    0.323070    2.537269
C        -0.000000   -0.520992    1.272485
H        -0.000000   -0.297499    3.433943
H        -0.880454    0.967254    2.578922
H         0.880454    0.967254    2.578922
C        -0.000000    0.312236   -0.000000
H        -0.874003   -1.178934    1.270784
H         0.874003   -1.178934    1.270784
C        -0.000000   -0.520992   -1.272485
H         0.874505    0.971688   -0.000000
H        -0.874505    0.971688   -0.000000
C         0.000000    0.323070   -2.537269
H        -0.874003   -1.178934   -1.270784
H         0.874003   -1.178934   -1.270784
H        -0.880454    0.967254   -2.578922
H        -0.000000   -0.297499   -3.433943
H         0.880454    0.967254   -2.578922
