17
0 2
C         1.280458    0.770731    0.155472
C         1.257404   -0.707445   -0.241997
C         0.000001    1.454720   -0.164297
H         2.121415    1.281970   -0.316091
H         1.464624    0.827716    1.241417
C        -0.000001   -1.399504    0.269961
H         2.150563   -1.208434    0.136321
H         1.287879   -0.784810   -1.332640
C        -1.257405   -0.707444   -0.241998
H        -0.000001   -1.387589    1.365453
H        -0.000002   -2.449274   -0.030180
C        -1.280457    0.770733    0.155473
H        -2.150565   -1.208430    0.136320
H        -1.287880   -0.784808   -1.332641
H        -2.121414    1.281972   -0.316089
H        -1.464622    0.827716    1.241417
H         0.000002    2.513225   -0.388972
