9
0 1
C        -1.205953   -0.240352   -0.021711
C         0.080145    0.555083    0.047108
H        -1.265409   -0.959929    0.798259
H        -1.265913   -0.788874   -0.961707
H        -2.072803    0.418528    0.052304
O         1.232415   -0.255421   -0.106852
H         0.129172    1.119296    0.985606
H         0.123890    1.277599   -0.767771
H         1.246593   -0.911645    0.595744
