11
0 1
C        -1.265940   -0.258560    0.000001
C         0.000000    0.584572   -0.000001
H        -2.162579    0.362210    0.000002
H        -1.307039   -0.903047    0.880452
H        -1.307041   -0.903049   -0.880447
C         1.265940   -0.258560   -0.000001
H         0.000001    1.241533    0.873488
H        -0.000001    1.241531   -0.873490
H         1.307041   -0.903047    0.880449
H         2.162579    0.362210   -0.000002
H         1.307039   -0.903049   -0.880449
