21
0 1
C        -0.278323   -0.329407    0.656484
C         0.316946    1.082490    0.677355
C         0.968976   -1.188970    0.432816
C         1.391548    1.075017   -0.421341
H         0.780827    1.257651    1.650306
H        -0.424451    1.868090    0.534893
C         1.821091   -0.402054   -0.576202
H         2.229238    1.722656   -0.165129
H         0.983953    1.453564   -1.358900
H         0.730075   -2.196182    0.089058
H         1.509280   -1.290338    1.376389
H         1.632239   -0.749906   -1.591843
H         2.886151   -0.541040   -0.394284
C        -1.317601   -0.529865   -0.446006
H        -0.749909   -0.568185    1.613639
C        -2.616000    0.228375   -0.215970
H        -1.537373   -1.598266   -0.520840
H        -0.892272   -0.241946   -1.411722
H        -3.071083   -0.057801    0.734397
H        -3.338938    0.021218   -1.005663
H        -2.457550    1.306962   -0.193120
