20
0 2
C         0.000000   -2.084072   -0.000001
C         1.201109   -1.387167   -0.000001
C         1.229244   -0.009892   -0.000000
C        -0.000000    0.720433    0.000000
C        -1.201109   -1.387167   -0.000000
C        -1.229244   -0.009892    0.000000
H        -2.136046   -1.933482   -0.000001
C        -0.000000    2.113488    0.000001
H        -0.918523    2.678098    0.000002
H         0.918523    2.678098    0.000002
H         2.136046   -1.933482   -0.000001
H         0.000000   -3.165743   -0.000001
C         2.542803    0.711086   -0.000000
H         3.368779    0.002378   -0.000003
H         2.648953    1.351082    0.878240
H         2.648951    1.351086   -0.878238
C        -2.542803    0.711086    0.000001
H        -3.368779    0.002378   -0.000000
H        -2.648952    1.351085   -0.878238
H        -2.648952    1.351083    0.878241
