13
0 1
C        -0.638698   -0.027431    0.376463
C         0.858673   -0.138840    0.057542
N        -1.124418    1.303477    0.008398
O         1.452614   -1.177159    0.078141
O         1.441769    1.026459   -0.209830
H         0.720212    1.691872   -0.179010
C        -1.412052   -1.178778   -0.242293
H        -0.958568   -2.128704    0.030055
H        -1.401024   -1.104107   -1.331693
H        -2.448498   -1.167438    0.094436
H        -0.691580   -0.106400    1.465144
H        -1.793300    1.666372    0.671364
H        -1.558921    1.299961   -0.905838
