22
0 1
C         2.007356    0.925996    0.000002
N         2.609767    1.898801    0.000004
C         1.270947   -0.344948   -0.000000
C         1.690306   -1.119403   -1.261155
H         2.767960   -1.278002   -1.269614
H         1.410489   -0.573924   -2.160575
H         1.198129   -2.089940   -1.279491
C         1.690306   -1.119406    1.261153
H         1.410489   -0.573929    2.160574
H         2.767961   -1.278003    1.269612
H         1.198130   -2.089943    1.279487
C        -0.235453   -0.088726    0.000000
C        -1.104854   -1.174576    0.000002
C        -0.772112    1.189588   -0.000003
C        -2.145366    1.379884   -0.000003
C        -3.000924    0.294920   -0.000001
C        -2.473838   -0.986449    0.000002
H        -0.715173   -2.183842    0.000004
H        -4.072328    0.443555   -0.000001
H        -3.132251   -1.844953    0.000004
H        -0.117119    2.050054   -0.000005
H        -2.542863    2.386033   -0.000006
