14
0 1
N        -1.902611   -1.164325   -0.000004
C        -2.464210    0.036005   -0.000004
C        -1.709053    1.197852   -0.000000
N        -0.386399    1.158768    0.000003
C         0.180011   -0.040455    0.000003
C        -0.578449   -1.202620   -0.000001
H        -0.088335   -2.166710    0.000000
H        -3.546909    0.078654   -0.000007
H        -2.181158    2.172733    0.000000
C         1.681625   -0.130060    0.000012
O         2.245821   -1.203827   -0.000002
N         2.305915    1.061329   -0.000002
H         1.762181    1.907011   -0.000004
H         3.309776    1.084191   -0.000011
