7
0 2
C        -0.575471    0.650339    0.000004
Cl         1.077223   -0.159179   -0.000003
H        -0.576112    1.271565    0.889849
H        -0.576116    1.271572   -0.889836
C        -1.631762   -0.355810    0.000002
H        -1.958587   -0.802125   -0.927764
H        -1.958581   -0.802134    0.927764
