24
0 1
C        -0.811316    1.208661    0.000000
C        -2.198600    1.193317    0.000000
C        -2.884712   -0.005278    0.000000
C        -0.076809    0.030127    0.000000
C        -0.786928   -1.169364    0.000000
C        -2.168273   -1.191453    0.000000
H        -2.689063   -2.140198   -0.000000
H        -3.966443   -0.018637    0.000000
H        -0.306760    2.163266    0.000000
H        -2.741490    2.129622    0.000000
H        -0.252319   -2.109939   -0.000000
C         1.450447    0.006141   -0.000000
C         2.052533    1.409673   -0.000001
C         1.947709   -0.728033   -1.251228
H         1.608036   -0.224196   -2.156930
H         1.587528   -1.755544   -1.285849
H         3.038722   -0.755337   -1.264818
H         1.758126    1.976212   -0.884043
H         3.140690    1.339061   -0.000001
H         1.758125    1.976213    0.884040
C         1.947710   -0.728032    1.251229
H         1.608037   -0.224194    2.156930
H         3.038722   -0.755336    1.264819
H         1.587529   -1.755543    1.285851
