12
0 2
C         2.623325   -0.243397   -0.000003
C         1.269795    0.450377    0.000020
C         0.146906   -0.493746   -0.000018
H         1.165021    1.117330   -0.863388
H         1.165017    1.117266    0.863477
N        -1.178489   -0.025501   -0.000005
O        -1.366790    1.183631    0.000039
O        -2.066698   -0.872688   -0.000035
H         2.746232   -0.872018   -0.882289
H         2.746228   -0.872085    0.882237
H         3.427045    0.490741    0.000027
H         0.227623   -1.569681   -0.000056
