11
0 2
C         0.767654   -1.201557   -0.000675
C         0.090025   -0.000000   -0.007146
C         0.767650    1.201559   -0.000675
H         1.848481    1.228989    0.019530
H         0.242411    2.146260   -0.016529
C        -1.417783   -0.000002    0.001807
H        -1.816580   -0.882810   -0.496121
H        -1.816582    0.882783   -0.496161
H        -1.793909    0.000021    1.026417
H         1.848484   -1.228983    0.019530
H         0.242418   -2.146260   -0.016529
