26
0 1
C         1.986433    0.976173   -1.072538
C         1.781710    0.116075    0.168390
H         2.950045    1.486563   -1.037761
H         1.213701    1.737659   -1.176625
H         1.969785    0.359668   -1.975088
C         0.469845   -0.666639    0.120908
C        -0.819171    0.141535   -0.029383
C        -2.011660   -0.811968   -0.120125
C        -3.332669   -0.150230   -0.483210
H        -3.247605    0.403837   -1.420439
H        -3.666494    0.547542    0.284630
H         0.392357   -1.270076    1.032248
C         2.951864   -0.842490    0.352956
H         3.032662   -1.522394   -0.498776
H         2.829432   -1.449415    1.251438
H         3.896528   -0.303263    0.437660
H         0.530017   -1.380091   -0.708544
H        -4.119719   -0.894271   -0.609850
H        -2.114673   -1.340403    0.833412
H        -1.783387   -1.577725   -0.866416
C        -0.988345    1.153258    1.097777
H        -0.773491    0.690726   -0.975928
H        -1.014871    0.646848    2.066366
H        -1.911858    1.721438    0.993439
H        -0.169418    1.871554    1.122210
H         1.758938    0.777512    1.039376
