16
0 1
C         2.569766   -0.022312   -0.000011
N         3.410904    0.752640   -0.000050
C         0.102140   -0.412613    0.000018
C        -2.498727    0.575143   -0.000014
C        -1.423398    1.443620    0.000014
C        -0.126626    0.952865    0.000030
C        -0.981864   -1.281747   -0.000011
C        -2.274139   -0.792755   -0.000027
H        -1.588658    2.512674    0.000023
H         0.708625    1.640497    0.000051
H        -3.509645    0.959830   -0.000028
H        -3.109098   -1.480630   -0.000051
H        -0.812043   -2.351939   -0.000022
C         1.495611   -1.005340    0.000040
H         1.628949   -1.645087   -0.874904
H         1.628958   -1.645006    0.875041
