16
0 2
C         0.000000    0.353014    1.502677
C        -0.000000   -0.000297    0.053309
C         0.000007    1.292397   -0.782722
H        -0.882585    1.896146   -0.568616
H         0.000007    1.055346   -1.849231
H         0.882604    1.896137   -0.568614
H         0.927269    0.566870    2.017514
H        -0.927267    0.566871    2.017514
C        -1.251401   -0.812189   -0.286839
H        -2.156631   -0.250510   -0.049994
H        -1.276358   -1.745369    0.277173
H        -1.276564   -1.056955   -1.350232
C         1.251394   -0.812201   -0.286837
H         2.156628   -0.250531   -0.049989
H         1.276557   -1.056967   -1.350230
H         1.276341   -1.745381    0.277175
