7
0 2
C         0.690311    0.000000   -0.001905
C        -0.789682    0.000000   -0.017434
H         1.085956   -0.000001    1.023319
H         1.101129    0.884237   -0.491842
H         1.101129   -0.884237   -0.491843
H        -1.345994    0.924610    0.038200
H        -1.345994   -0.924610    0.038200
