10
0 2
C        -0.000005   -0.000005   -0.000019
N        -1.244079    0.725033   -0.000003
O        -2.113081    0.277801   -0.706296
O        -1.283286    1.701576    0.706299
N        -0.005856   -1.439923   -0.000006
O         0.816002   -1.968868   -0.706265
O        -0.831980   -1.962168    0.706261
N         1.249931    0.714886    0.000002
O         1.297119    1.691059   -0.706320
O         2.115234    0.260608    0.706340
