24
0 1
C        -1.763373    0.000148    0.104052
C        -1.094358   -1.210608   -0.006737
C         0.273465   -1.193356   -0.239264
C         0.971751   -0.000172   -0.356567
C        -1.094064    1.210782   -0.006788
C         0.273717    1.193209   -0.239306
C         2.460922   -0.000320   -0.566173
C         3.232972    0.000005    0.751198
H         2.745245    0.875370   -1.152985
H         2.745138   -0.876372   -1.152495
H         2.985317    0.880277    1.345559
H         4.309599   -0.000095    0.576296
H         2.985228   -0.879919    1.346038
H        -2.834683    0.000275    0.271638
H         0.806783   -2.132159   -0.341900
C        -1.831505   -2.510498    0.140967
H        -2.866634   -2.419080   -0.186803
H        -1.845652   -2.832948    1.184489
H        -1.358942   -3.302428   -0.439388
H         0.807253    2.131881   -0.341980
C        -1.831015    2.510788    0.140873
H        -2.865202    2.420430   -0.190179
H        -1.356318    3.303451   -0.436717
H        -1.848209    2.831462    1.184895
