20
0 1
C        -0.798339   -1.425516   -0.260469
C        -2.146944   -1.152195   -0.063502
C        -2.578108    0.145942    0.167104
C        -1.672744    1.196371    0.208271
C        -0.330179    0.922910    0.014225
C         0.104178   -0.385165   -0.222139
C         1.601785   -0.388434   -0.394388
C         1.937872    1.070182   -0.221836
C         0.843544    1.796939    0.006747
H         2.949477    1.446549   -0.277336
H         0.809882    2.865501    0.164917
C         2.338760   -1.305906    0.578759
H         1.851104   -0.695713   -1.417005
H         3.417716   -1.237694    0.436210
H         2.045368   -2.345308    0.431575
H         2.110877   -1.031012    1.608808
H        -0.470749   -2.442066   -0.440693
H        -2.013038    2.207986    0.389446
H        -2.867598   -1.958755   -0.090166
H        -3.631983    0.339750    0.317609
