26
0 1
C         2.017470   -1.637467    0.561954
C         1.879498   -0.421016   -0.341074
H         1.105062   -2.233439    0.589342
H         2.249403   -1.341984    1.587486
H         2.820659   -2.288685    0.215824
C         0.909918    0.654204    0.157074
H         1.590406   -0.741067   -1.345708
H         2.860297    0.048169   -0.455135
C        -0.503332    0.121958    0.466575
C        -1.212640   -0.460545   -0.756877
C        -2.503265   -1.198519   -0.428865
H        -0.539920   -1.151159   -1.269250
H        -1.426911    0.340578   -1.469336
H        -2.326279   -1.987755    0.305099
H        -2.924273   -1.664616   -1.320263
H        -3.262424   -0.531695   -0.020443
C         0.913327    1.833791   -0.810601
H         1.307024    1.014639    1.113699
H         0.553520    1.539428   -1.797893
H         1.926309    2.218866   -0.935731
H         0.291531    2.656352   -0.459266
C        -1.354912    1.182088    1.160140
H        -0.376314   -0.695949    1.182535
H        -1.659786    1.969251    0.468480
H        -0.803475    1.651044    1.976887
H        -2.261205    0.751063    1.583719
