9
0 1
C         0.668366   -0.781341   -0.021085
C        -0.659762   -0.046558   -0.002167
O         1.725235    0.157052    0.072953
H         0.708598   -1.352066   -0.951328
H         0.673004   -1.481614    0.816357
H         2.544175   -0.218029   -0.258578
O        -1.702256   -0.627000    0.016539
O        -0.567125    1.282390   -0.019303
H         0.375771    1.519568   -0.028450
