13
0 1
N        -1.529046   -0.989327   -0.351320
C        -0.639319    0.145900   -0.396019
C         0.795799   -0.195912    0.007222
O         1.104945   -1.181980    0.602452
O         1.733422    0.714924   -0.331151
H         1.342443    1.444409   -0.825756
H        -1.521648   -1.391780    0.578961
H        -1.210537   -1.719178   -0.976091
C        -1.168391    1.255839    0.508556
H        -0.616194    0.513572   -1.427465
H        -1.203411    0.909577    1.542590
H        -2.177602    1.520457    0.200676
H        -0.545198    2.149714    0.477358
