28
0 1
C        -1.295678   -0.385775    1.142737
C        -2.112366   -1.490932    0.974454
C        -3.136247   -1.463937    0.043328
C        -1.486205    0.762965    0.386552
C        -2.519332    0.778778   -0.542696
C        -3.338698   -0.322962   -0.715623
H        -4.140213   -0.289785   -1.442045
H        -3.776115   -2.326305   -0.088547
H        -0.489096   -0.418073    1.864248
H        -1.946041   -2.377552    1.572117
H        -2.684902    1.669052   -1.138254
C         1.486205    0.762964   -0.386552
C         1.295677   -0.385776   -1.142736
C         2.519333    0.778778    0.542695
C         3.338699   -0.322962    0.715622
C         3.136247   -1.463938   -0.043329
C         2.112364   -1.490933   -0.974453
H         1.946039   -2.377554   -1.572116
H         0.489094   -0.418074   -1.864246
H         4.140215   -0.289785    1.442043
H         3.776115   -2.326306    0.088546
H         2.684904    1.669052    1.138252
C         0.565355    1.942386   -0.521984
C        -0.565354    1.942386    0.521985
H         0.124788    1.952283   -1.520406
H         1.135591    2.867255   -0.415391
H        -1.135591    2.867255    0.415391
H        -0.124788    1.952283    1.520406
