8
0 2
C        -0.000001    0.740022    0.000005
N         1.233445    0.031923    0.085528
O         1.256274   -1.027153    0.664363
O         2.174306    0.608212   -0.426312
N        -1.233445    0.031921   -0.085527
H        -0.000002    1.816065    0.000011
O        -1.256268   -1.027156   -0.664362
O        -2.174311    0.608209    0.426305
