24
0 1
C         0.811311    1.208661    0.000015
C         2.198603    1.193318    0.000014
C         2.884713   -0.005274   -0.000001
C         0.076809    0.030129    0.000002
C         0.786930   -1.169371   -0.000013
C         2.168272   -1.191458   -0.000016
H         2.689071   -2.140198   -0.000029
H         3.966445   -0.018642   -0.000002
H         0.306755    2.163268    0.000027
H         2.741485    2.129628    0.000025
H         0.252309   -2.109941   -0.000025
C        -1.450445    0.006138    0.000001
C        -2.052529    1.409674   -0.000025
H        -1.758117    1.976192   -0.884079
H        -1.758114    1.976224    0.884008
H        -3.140687    1.339061   -0.000022
C        -1.947715   -0.728010    1.251243
H        -3.038729   -0.755284    1.264840
H        -1.608015   -0.224164    2.156930
H        -1.587558   -1.755530    1.285871
C        -1.947709   -0.728053   -1.251218
H        -3.038723   -0.755327   -1.264820
H        -1.587551   -1.755574   -1.285808
H        -1.608005   -0.224239   -2.156922
