12
0 2
C         1.338201    0.573608    0.000538
C        -0.006855    0.311738   -0.000463
C        -1.197834    0.069188   -0.001737
C        -2.622304   -0.209572    0.000496
H        -3.085244    0.116841    0.934170
H        -2.813052   -1.277352   -0.112436
H        -3.125547    0.310692   -0.816722
C         2.382803   -0.489354    0.000133
H         1.659343    1.608468    0.001229
H         1.937437   -1.482268    0.001082
H         3.032351   -0.404498    0.876322
H         3.030651   -0.405527   -0.877445
