8
0 2
C        -1.832724    0.030002   -0.000000
N        -0.633170   -0.603803    0.000001
H        -1.839012    1.103440    0.000001
H        -2.710068   -0.590862    0.000001
N         0.558891    0.050857    0.000000
O         0.524858    1.264024   -0.000000
O         1.547363   -0.666204   -0.000001
H        -0.512393   -1.604529   -0.000001
