11
0 2
C         0.625561   -0.464154   -0.037946
O         1.910041   -0.005012   -0.017653
H         1.931707    0.911277   -0.312933
C        -0.492835    0.500168    0.107616
C        -1.854410   -0.155374   -0.071923
H        -0.374769    1.307345   -0.626574
H        -0.448776    0.987571    1.094170
H        -1.946686   -0.597650   -1.063931
H        -2.658415    0.568934    0.054636
H        -2.003233   -0.948768    0.661976
H         0.549951   -1.472450    0.347398
