16
0 1
C        -0.802254   -0.498230    1.359209
C        -0.298540    0.000013   -0.000020
H        -1.893316   -0.502610    1.371533
H        -0.450895    0.146704    2.164092
H        -0.451082   -1.510644    1.556493
C         1.168416   -0.000005   -0.000021
C         2.363611   -0.000020   -0.000012
H         3.425981   -0.000059   -0.000027
C        -0.802251    1.426248   -0.248112
H        -0.451109    2.103264    0.530074
H        -1.893310    1.439158   -0.250575
H        -0.450794    1.800850   -1.209038
C        -0.802315   -0.927999   -1.111065
H        -0.451215   -0.592655   -2.086512
H        -1.893372   -0.936558   -1.120953
H        -0.450892   -1.947491   -0.954964
