13
0 1
C        -0.442326    0.032140   -0.336100
C         0.744787   -0.726906    0.215053
O        -0.329440    1.344677    0.214276
H        -0.942563    1.935382   -0.230519
O         1.962219   -0.111869   -0.133355
H         0.764238   -1.736215   -0.196402
H         0.638162   -0.802047    1.304827
H         1.872413    0.822247    0.088054
C        -1.762447   -0.612510    0.029149
H        -0.334759    0.087195   -1.425451
H        -1.868950   -0.672480    1.112725
H        -1.830969   -1.619224   -0.386051
H        -2.599886   -0.033663   -0.363169
