13
0 2
C        -0.000003    0.000001   -0.157536
C         0.723470    1.286997    0.015509
H         0.176956    2.120929   -0.428833
H         1.719850    1.253628   -0.429086
H         0.862476    1.533931    1.079864
C        -1.476321   -0.016957    0.015519
H        -1.945615    0.862703   -0.428904
H        -1.759659   -0.020291    1.079876
H        -1.925285   -0.907126   -0.428995
C         0.752848   -1.270036    0.015525
H         1.748200   -1.213796   -0.429089
H         0.225633   -2.116295   -0.428812
H         0.897484   -1.513714    1.079875
