24
0 1
C         0.521137   -0.591413   -0.107387
N         1.882598    0.086609    0.138809
O         2.329510    0.764380   -0.760914
O         2.421358   -0.078315    1.205967
C        -0.521133    0.591297   -0.108001
C         0.272954   -1.576994    1.021362
H         0.143994   -1.091420    1.983602
H         1.110407   -2.264923    1.100499
H        -0.620201   -2.156530    0.795851
C        -0.643457    1.320255   -1.437180
H         0.315387    1.761253   -1.695167
H        -1.379183    2.118555   -1.343804
H        -0.958268    0.654680   -2.233702
N        -1.882598   -0.086466    0.138890
O        -2.421398    0.079620    1.205847
O        -2.329476   -0.765216   -0.760112
C        -0.272957    1.578052    1.019724
H         0.620204    2.157348    0.793620
H        -0.144013    1.093486    1.982474
H        -1.110406    2.266069    1.098131
C         0.643463   -1.321750   -1.435809
H         0.958270   -0.657001   -2.233022
H        -0.315379   -1.763019   -1.693337
H         1.379194   -2.119948   -1.341605
