20
0 2
C         0.000000   -1.314787   -0.000015
C         1.218474   -0.634700   -0.000009
C         1.209844    0.742292   -0.000005
C        -0.000000    1.474970   -0.000003
C        -1.218474   -0.634700   -0.000008
C        -1.209844    0.742292   -0.000004
C         0.000000    2.871067   -0.000003
H        -0.926148    3.427747   -0.000003
H         0.926148    3.427747   -0.000003
H         0.000000   -2.399226   -0.000029
H         2.146601    1.286496   -0.000010
C         2.507984   -1.404098    0.000014
H         2.581065   -2.046612    0.878980
H         3.367458   -0.735655   -0.000270
H         2.580830   -2.047071   -0.878633
H        -2.146601    1.286496   -0.000008
C        -2.507984   -1.404099    0.000016
H        -2.580827   -2.047079   -0.878625
H        -3.367458   -0.735655   -0.000276
H        -2.581068   -2.046604    0.878988
