24
0 1
C        -3.761617   -0.911031   -0.133393
C        -3.636686    0.317983    0.496607
C        -2.656759   -1.504193   -0.719517
C        -1.422709   -0.879994   -0.661047
C        -2.410285    0.951549    0.536481
C        -1.291273    0.351553   -0.030504
H        -0.563817   -1.342954   -1.126247
H        -4.723963   -1.404216   -0.171479
H        -2.755377   -2.455470   -1.224984
H        -4.500508    0.784062    0.951362
H        -2.297771    1.920601    1.002504
C        -0.000000    1.099895    0.000003
O        -0.000001    2.310765    0.000001
C         1.291273    0.351554    0.030508
C         1.422712   -0.879992    0.661053
C         2.410282    0.951549   -0.536484
C         3.636683    0.317983   -0.496613
C         2.656762   -1.504190    0.719519
C         3.761617   -0.911029    0.133388
H         4.500503    0.784061   -0.951374
H         4.723963   -1.404214    0.171471
H         2.297766    1.920599   -1.002509
H         0.563821   -1.342950    1.126258
H         2.755382   -2.455466    1.224988
