24
0 1
C        -1.015077   -1.238592    0.052693
C        -2.335360   -1.177271    0.460587
C        -3.048645    0.003781    0.332609
C        -0.379366   -0.126349   -0.488221
C        -1.107251    1.049043   -0.614218
C        -2.430057    1.117104   -0.208058
H        -2.978813    2.043576   -0.316278
H        -4.081964    0.053456    0.649103
H        -0.466722   -2.168006    0.151454
H        -2.811789   -2.055529    0.876430
H        -0.629978    1.924817   -1.036640
C         1.065225   -0.199873   -0.895874
C         2.047725   -0.213622    0.282632
H         1.306288    0.647919   -1.542950
H         1.225472   -1.102095   -1.491515
C         3.467552   -0.440775   -0.217746
H         3.548150   -1.372848   -0.779315
H         4.175364   -0.484908    0.611066
H         3.779598    0.373225   -0.876699
C         1.958263    1.062379    1.107996
H         1.774629   -1.054434    0.928533
H         2.218850    1.932695    0.499955
H         2.648820    1.029001    1.951679
H         0.954035    1.218185    1.500784
