8
0 2
C         1.304974   -0.315933   -0.000003
C         0.211722    0.387678    0.000002
H         2.369126   -0.145572   -0.000003
C        -1.186601   -0.152509    0.000000
H         0.302890    1.477814    0.000009
H        -1.187644   -1.240506   -0.000007
H        -1.732473    0.196428   -0.878556
H        -1.732470    0.196416    0.878563
