24
0 1
C        -1.789050   -1.244206   -0.233901
C        -1.267931   -0.273728    0.613904
C        -2.915473   -0.954501   -0.976274
C        -3.491404    0.297808   -0.853120
C        -2.905517    1.200277    0.014258
N        -1.823006    0.928336    0.733356
H        -4.374875    0.570560   -1.413036
H        -3.326213    2.191585    0.142158
H        -1.308069   -2.210330   -0.307809
H        -3.339890   -1.694770   -1.641869
C        -0.016739   -0.530881    1.411397
C         1.231876   -0.199362    0.629387
H        -0.063725    0.080763    2.311851
H         0.017003   -1.576879    1.716683
C         2.115691   -1.194864    0.240680
C         1.505956    1.115501    0.269473
C         3.252220   -0.889208   -0.491643
C         3.516716    0.421444   -0.844738
C         2.638711    1.423482   -0.460804
H         1.915869   -2.223059    0.517198
H         3.931943   -1.678688   -0.784566
H         0.815840    1.896550    0.561654
H         4.403418    0.663619   -1.415350
H         2.839404    2.451727   -0.732118
