15
0 1
C         0.666353    0.061015   -0.000000
C        -0.006979   -1.154268    0.000001
C        -1.383395   -1.223445    0.000001
C        -2.121509   -0.053886    0.000000
C        -1.477680    1.166302   -0.000001
C        -0.094509    1.220256   -0.000001
F         0.458507    2.423478   -0.000002
F        -3.441203   -0.106210    0.000000
F        -2.185348    2.286587   -0.000002
F         0.675844   -2.290649    0.000002
F        -1.999285   -2.396070    0.000002
C         2.174833    0.038467   -0.000000
F         2.709040    1.255835   -0.000004
F         2.638851   -0.604636   -1.078566
F         2.638851   -0.604629    1.078570
