9
0 2
C        -1.875021    0.004920   -0.000001
C        -0.591814   -0.699438    0.000001
N         0.610739    0.031373    0.000001
O         0.545301    1.252970   -0.000003
O         1.653105   -0.615479    0.000002
H        -0.448571   -1.767730    0.000005
H        -1.957064    0.659856    0.871992
H        -2.698723   -0.704427   -0.000006
H        -1.957057    0.659861   -0.871991
