18
0 1
C        -1.110944   -0.461541    1.247848
C        -0.350593    0.001216    0.000003
H        -0.601165   -0.139700    2.156597
H        -1.194506   -1.549279    1.275735
H        -2.120561   -0.046858    1.256522
C        -1.110964   -0.461551   -1.247826
H        -1.194527   -1.549289   -1.275702
H        -0.601201   -0.139718   -2.156586
H        -2.120582   -0.046868   -1.256487
C         1.002318   -0.662743   -0.000006
C         2.187511   -0.078881   -0.000017
H         2.304151    0.996673   -0.000022
H         3.096742   -0.665024   -0.000022
H         0.961740   -1.749766   -0.000001
C        -0.253857    1.522368   -0.000005
H         0.270946    1.888052   -0.883350
H         0.270960    1.888060    0.883329
H        -1.252823    1.960510    0.000002
