10
0 2
C         1.207605   -0.284393    0.000004
C        -0.068092    0.570392   -0.000006
H         2.097073    0.347563   -0.000004
H         1.246468   -0.925868   -0.880916
H         1.246468   -0.925847    0.880939
C        -1.309727   -0.240877    0.000001
H        -0.049707    1.222443   -0.876983
H        -0.049710    1.222463    0.876957
H        -1.734671   -0.605713    0.924969
H        -1.734639   -0.605774   -0.924958
