14
0 2
C         0.000000   -2.383677    0.000000
C         0.000000   -0.986297    0.000000
H         0.926162   -2.940196    0.000000
H        -0.926162   -2.940196    0.000000
C        -1.208974   -0.250118    0.000000
C        -1.202814    1.124709    0.000000
C        -0.000000    1.824527    0.000000
C         1.202814    1.124709    0.000000
C         1.208974   -0.250118    0.000000
H         2.147412   -0.789974    0.000000
H        -2.147412   -0.789974    0.000000
H        -2.139915    1.665979    0.000000
H        -0.000000    2.905980    0.000000
H         2.139915    1.665979    0.000000
