11
0 1
C         0.451344    0.090592   -0.000002
O         0.464811    1.283427    0.000011
O         1.545845   -0.679061   -0.000010
C        -0.767369   -0.804177   -0.000009
C         2.793766    0.019180   -0.000006
H         3.560944   -0.748372   -0.000026
H         2.876630    0.645107    0.886370
H         2.876617    0.645142   -0.886358
H        -0.737506   -1.441590   -0.880266
H        -0.737499   -1.441614    0.880230
Cl        -2.281817    0.098402    0.000009
