34
0 1
C         1.839588   -0.712270    1.289002
C         2.978277   -1.481701    1.125354
C         3.568335   -1.590515   -0.121810
C         1.265026   -0.038659    0.219130
C         1.870234   -0.153578   -1.026529
C         3.009406   -0.921142   -1.196949
H         3.464494   -0.993678   -2.176163
H         4.459509   -2.189162   -0.254747
H         1.382877   -0.634129    2.268152
H         3.406563   -1.995864    1.975797
H         1.459557    0.369839   -1.879271
C        -0.009951    0.752536    0.440004
C        -1.224413   -0.115708    0.172129
C        -1.482101   -0.633594   -1.091791
C        -0.061691    2.092024   -0.320895
H        -0.038222    1.005947    1.503654
C        -2.115204   -0.406406    1.195037
C        -3.236283   -1.188439    0.967647
C        -3.484225   -1.693109   -0.295727
C        -2.600750   -1.411794   -1.325814
H        -2.782696   -1.805084   -2.317473
H        -0.797303   -0.434475   -1.905090
H        -3.916817   -1.402027    1.781500
H        -4.358120   -2.304062   -0.478312
H        -1.930657   -0.010977    2.186351
C        -1.364746    2.831392   -0.042491
H        -2.235520    2.256842   -0.353393
H        -1.382231    3.785636   -0.570085
H        -1.467193    3.041654    1.025160
C         1.127870    2.972996    0.041244
H        -0.023195    1.880350   -1.393350
H         1.114670    3.209013    1.108215
H         1.089072    3.915701   -0.505777
H         2.078977    2.492276   -0.180411
