8
0 2
C        -1.335384    0.097699   -0.000001
C        -0.125677   -0.379143    0.000000
C         1.264643    0.075757    0.000000
H         1.314267    1.172103   -0.000001
H         1.797781   -0.286193   -0.880370
H         1.797781   -0.286191    0.880371
H        -2.212422   -0.539599    0.000003
H        -1.518900    1.174000   -0.000000
