13
0 2
C        -0.000016    0.000018   -0.157570
C         0.287018   -1.448227    0.015502
H         1.244383   -1.726582   -0.428941
H        -0.491791   -2.070691   -0.428960
H         0.342101   -1.726163    1.079866
C        -1.397738    0.475556    0.015547
H        -1.547386    1.461304   -0.428811
H        -1.665991    0.566692    1.079915
H        -2.117486   -0.214308   -0.428985
C         1.110725    0.972670    0.015509
H         0.873241    1.940915   -0.429079
H         2.039210    0.609291   -0.428812
H         1.323790    1.159444    1.079872
