7
0 2
C         0.031622    0.132750   -0.000000
C        -1.308925   -0.408553    0.000000
H        -2.130366    0.289972    0.000001
H        -1.514020   -1.470228   -0.000001
O         0.262167    1.313975    0.000000
O         1.059052   -0.752084   -0.000000
H         0.738448   -1.660056    0.000000
