19
0 1
C        -1.116114    0.233963    0.402517
C        -2.110956   -0.914854    0.454351
C         0.257712   -0.243626   -0.038552
O         0.386037   -1.100917   -0.875965
C         1.446669    0.429918    0.603478
H        -1.805500   -1.674458    1.174395
H        -2.185569   -1.393379   -0.520928
H        -3.098095   -0.551236    0.741370
C        -1.574911    1.326163   -0.567003
H        -1.015467    0.679029    1.396435
H        -2.541291    1.724473   -0.257622
H        -1.679896    0.916080   -1.571936
H        -0.869212    2.156834   -0.610947
C         2.775683    0.064451   -0.025297
H         1.423469    0.158296    1.664598
H         1.274774    1.510370    0.585057
H         2.938189   -1.011310    0.011033
H         3.597648    0.557584    0.493034
H         2.804157    0.358959   -1.073734
