10
0 2
C         1.207605   -0.284393    0.000008
C        -0.068092    0.570392   -0.000011
H         2.097073    0.347563   -0.000007
H         1.246468   -0.925877   -0.880905
H         1.246468   -0.925838    0.880949
C        -1.309726   -0.240877    0.000002
H        -0.049706    1.222434   -0.876995
H        -0.049711    1.222471    0.876945
H        -1.734686   -0.605686    0.924974
H        -1.734625   -0.605801   -0.924953
