26
0 1
C        -4.167793   -0.214993    0.161246
C        -2.857986    0.445298   -0.239285
H        -4.276142   -1.191757   -0.314258
H        -5.027367    0.391327   -0.126236
H        -4.215506   -0.368360    1.241119
C        -1.635573   -0.373468    0.146683
H        -2.789017    1.433824    0.224153
H        -2.848904    0.616365   -1.319770
C        -0.319690    0.276878   -0.251729
H        -1.704813   -1.364398   -0.314144
H        -1.642271   -0.543063    1.228593
C         0.895700   -0.546057    0.148564
H        -0.265841    1.270561    0.200197
H        -0.308276    0.433911   -1.335657
C         2.239188    0.005035   -0.325725
H         0.777140   -1.559918   -0.246506
H         0.921537   -0.648563    1.239585
C         2.546482    1.373693    0.270273
H         1.805611    2.120567   -0.013019
H         3.521279    1.733475   -0.062314
H         2.567684    1.320461    1.361993
C         3.359104   -0.977617   -0.007779
H         2.185948    0.114861   -1.414979
H         3.451079   -1.120919    1.071753
H         4.320479   -0.617145   -0.376754
H         3.170790   -1.953839   -0.457243
