8
0 2
C         0.000000    0.740028   -0.000002
N         1.233446    0.031920    0.085526
O         1.256272   -1.027146    0.664381
O         2.174310    0.608199   -0.426318
N        -1.233447    0.031924   -0.085532
H         0.000002    1.816070    0.000002
O        -1.256274   -1.027146   -0.664379
O        -2.174308    0.608200    0.426322
