8
0 1
C        -0.062194    0.000000    0.356309
C         1.365975    0.000000   -0.090041
F        -0.709565   -1.095107   -0.135300
F        -0.709565    1.095107   -0.135300
H        -0.196135    0.000000    1.439951
H         1.402865   -0.000000   -1.178460
H         1.871374   -0.887091    0.288155
H         1.871374    0.887091    0.288155
