7
0 2
C        -1.308927   -0.408551    0.000002
C         0.031623    0.132751   -0.000000
H        -2.130366    0.289976    0.000003
H        -1.514020   -1.470226    0.000002
O         0.262170    1.313975   -0.000000
O         1.059051   -0.752087   -0.000002
H         0.738439   -1.660057   -0.000001
