10
0 1
O         0.820177   -0.781010   -0.245020
C         1.035587    0.611439   -0.057151
C        -0.150092   -0.041356    0.485381
H         0.941755    1.217635   -0.952762
H         1.862818    0.868675    0.595939
C        -1.499003    0.100315   -0.146850
H        -0.150539   -0.265301    1.549454
H        -2.065056    0.900264    0.333319
H        -1.400934    0.328922   -1.207677
H        -2.068410   -0.824498   -0.046397
