16
0 2
C        -2.364713   -0.183444    0.119193
C        -0.936055   -0.313013   -0.383978
H        -2.757169    0.818965   -0.063464
H        -2.420040   -0.366776    1.194063
H        -3.028864   -0.894554   -0.373019
C         0.015989    0.672408    0.278015
H        -0.911460   -0.158372   -1.466920
H        -0.576449   -1.331336   -0.216546
C         1.457503    0.548002   -0.207184
H        -0.009229    0.528391    1.363219
H        -0.338642    1.690926    0.097253
C         2.112618   -0.726794    0.169667
H         2.037327    1.390869    0.198752
H         1.493049    0.678592   -1.294035
H         2.976557   -1.092343   -0.366615
H         1.822865   -1.247311    1.073032
