10
0 1
C         1.180362    0.083927    0.000001
C         0.065580    1.021786   -0.000001
N         2.047689   -0.661459    0.000003
C        -1.287025    0.363785   -0.000002
C        -1.512394   -0.935319   -0.000001
H        -0.704264   -1.656033    0.000001
H        -2.521832   -1.322125   -0.000002
H         0.165253    1.671218   -0.873458
H         0.165251    1.671219    0.873456
H        -2.117372    1.060854   -0.000003
