15
0 1
C        -0.027212    0.000006    0.449710
C         0.646097   -1.196668    0.245915
C         1.970174   -1.198296   -0.154746
C         2.634737   -0.000006   -0.356213
C         1.970182    1.198289   -0.154756
C         0.646105    1.196673    0.245905
H         0.125915    2.134111    0.398884
H         3.670534   -0.000011   -0.668395
H         2.485418    2.136964   -0.308977
H         0.125901   -2.134101    0.398901
H         2.485403   -2.136976   -0.308960
C        -1.458333    0.000012    0.871168
Cl        -2.574553   -0.000005   -0.546360
H        -1.708132    0.885633    1.447374
H        -1.708134   -0.885593    1.447397
