7
0 2
C         0.689567   -0.317343    0.000001
O         1.822358   -0.006503    0.000001
O        -0.364518    0.478838   -0.000002
C        -1.648547   -0.161918    0.000001
H        -2.376639    0.642742   -0.000022
H        -1.766107   -0.772908    0.892511
H        -1.766093   -0.772947   -0.892485
