14
0 1
C        -0.467005    1.168056   -0.156446
C        -1.851581    1.140043   -0.139472
C         0.223450   -0.025305   -0.013677
C        -0.507279   -1.192748    0.129453
C        -1.887384   -1.112178    0.147049
N        -2.554992    0.028410    0.016328
H         0.004545   -2.139459    0.223349
H        -2.485692   -2.007315    0.270054
C         1.718506   -0.121718   -0.034075
O         2.397237    0.994323    0.288050
H         1.803128    1.685504    0.601314
O         2.298964   -1.124777   -0.316593
H        -2.416792    2.056963   -0.260537
H         0.037917    2.112173   -0.317124
