11
0 1
C         0.434700    1.665699    0.144931
H         0.617009    1.711481    1.218686
H        -0.537552    2.110792   -0.063848
H         1.201363    2.248845   -0.360749
C         0.452859    0.234762   -0.335992
C        -0.560365   -0.664487    0.340236
Cl         2.072394   -0.496017   -0.018681
H        -0.467962   -0.610482    1.421783
Cl        -2.228543   -0.172670   -0.082107
H         0.320893    0.184376   -1.414212
H        -0.442374   -1.693168    0.016679
