18
0 1
C         2.990701   -0.383369   -0.166943
C         1.759914    0.498859   -0.030729
C         0.469848   -0.297506    0.090000
C        -0.768911    0.584422    0.221354
H         0.534412   -0.962958    0.956882
H         0.356060   -0.946354   -0.783212
C        -2.026962   -0.204054    0.386554
H        -0.855461    1.233145   -0.653947
H        -0.639622    1.241949    1.087854
C        -3.059424   -0.174442   -0.437544
H        -2.065891   -0.857213    1.254849
H        -3.061604    0.459767   -1.316574
H        -3.940828   -0.777983   -0.266645
H         3.901407    0.210171   -0.252328
H         2.922725   -1.017376   -1.052974
H         3.101238   -1.039114    0.698840
H         1.690139    1.166976   -0.894061
H         1.866435    1.145533    0.845171
