12
0 1
C        -0.558050    0.135665    0.024185
O        -0.516782    1.345368    0.049750
N        -1.731492   -0.541631   -0.081005
C         0.678131   -0.736716    0.127284
H        -2.586936   -0.014918   -0.108428
H        -1.769969   -1.543398   -0.097638
C         1.961564    0.038063   -0.100450
H         0.590337   -1.566270   -0.578596
H         0.673875   -1.183739    1.125708
H         1.993506    0.453645   -1.106839
H         2.828363   -0.609002    0.032193
H         2.035648    0.870084    0.596517
