21
0 1
C        -0.393167    1.089064    0.000055
C        -1.760511    1.296437    0.000065
C        -2.629883    0.217252    0.000004
C         0.136434   -0.197275   -0.000016
C        -0.746222   -1.268230   -0.000076
C        -2.117400   -1.067331   -0.000067
H        -2.785642   -1.918615   -0.000115
H        -3.699607    0.378764    0.000012
H         0.271104    1.944106    0.000104
H        -2.150855    2.305877    0.000121
H        -0.352834   -2.277670   -0.000132
C         1.630223   -0.429395   -0.000023
C         2.288743    0.131255    1.258772
H         2.181925    1.216131    1.307509
H         3.355322   -0.098303    1.269970
H         1.839079   -0.288133    2.158857
C         2.288762    0.131431   -1.258729
H         1.783228   -1.511753   -0.000098
H         2.181950    1.216314   -1.307315
H         1.839110   -0.287828   -2.158881
H         3.355340   -0.098129   -1.269945
