22
0 1
C         0.100090   -1.256360    0.254841
C         1.531261   -1.256638   -0.267912
C         2.281066    0.000001    0.156434
H         1.514271   -1.313074   -1.361230
H         2.055981   -2.148339    0.080731
C         1.531259    1.256640   -0.267911
C        -2.053000   -0.000002    0.386765
C        -3.165464    0.000001   -0.326079
H        -3.140796    0.000004   -1.409740
H        -4.141063    0.000000    0.141492
H         3.289117    0.000002   -0.262825
H         2.395189    0.000001    1.245520
C        -0.666115   -0.000001   -0.170843
H         0.113451   -1.306257    1.349320
H        -0.433543   -2.143741   -0.090586
C         0.100088    1.256359    0.254842
H        -0.433545    2.143740   -0.090584
H         0.113450    1.306255    1.349322
H         1.514269    1.313076   -1.361229
H         2.055978    2.148341    0.080733
H        -0.737284   -0.000000   -1.264421
H        -2.120580   -0.000005    1.472677
