16
0 2
C        -0.535294   -0.000001    0.284637
C         0.895784   -0.000004    0.703407
C         1.875286    0.000002   -0.478991
H         1.097862   -0.877818    1.323748
H         1.097862    0.877802    1.323758
H         1.732869   -0.881582   -1.105436
H         2.909143   -0.000000   -0.130986
H         1.732870    0.881594   -1.105425
C        -1.164430    1.277343   -0.144653
H        -0.783580    2.126768    0.425190
H        -2.250402    1.248030   -0.030886
H        -0.972063    1.494928   -1.206314
C        -1.164431   -1.277341   -0.144665
H        -2.250404   -1.248027   -0.030900
H        -0.783583   -2.126771    0.425170
H        -0.972064   -1.494917   -1.206329
