15
0 1
C        -0.054303    0.000001   -0.029269
C        -0.741912   -1.202599   -0.018286
C        -2.124979   -1.199744    0.001620
C        -2.816497   -0.000001    0.012047
C        -2.124981    1.199744    0.001620
C        -0.741913    1.202600   -0.018286
H        -0.196427    2.135573   -0.032483
H        -3.898201   -0.000001    0.025677
H        -2.663824    2.137376    0.006451
H        -0.196425   -2.135571   -0.032483
H        -2.663822   -2.137377    0.006451
C         1.444561    0.000000   -0.003388
F         1.961016   -1.079603   -0.608373
F         1.920060   -0.000018    1.255609
F         1.961017    1.079620   -0.608342
