7
0 2
C         0.789682    0.000000   -0.017434
C        -0.690311    0.000001   -0.001905
H         1.345996    0.924609    0.038200
H         1.345992   -0.924612    0.038200
H        -1.101128    0.884265   -0.491792
H        -1.085956   -0.000060    1.023319
H        -1.101129   -0.884208   -0.491893
