8
0 2
C         0.858634    0.109651   -0.000018
N         1.947894   -0.285028    0.000020
C        -0.444653    0.570148   -0.000013
C        -1.619110   -0.338373    0.000001
H        -0.591433    1.641943    0.000017
H        -1.320055   -1.383720   -0.000012
H        -2.246514   -0.155787   -0.876633
H        -2.246484   -0.155800    0.876660
