21
0 1
C         1.886626   -1.543951   -0.114029
C         3.206809   -1.208250   -0.088488
C         3.593398    0.142778    0.008551
C         2.652460    1.126755    0.075888
C         1.276808    0.811148    0.050987
C         0.889030   -0.546486   -0.041299
C        -0.486318   -0.861983   -0.060266
C         0.272706    1.805792    0.106411
C        -1.044538    1.473638    0.074021
C        -1.437105    0.118239    0.003803
H         0.571841    2.844213    0.169985
H        -1.817859    2.227698    0.099805
H         1.584930   -2.581161   -0.189479
H         3.964388   -1.978300   -0.143132
H         4.644880    0.396216    0.027622
H         2.947703    2.165781    0.147410
C        -2.901230   -0.168921   -0.042839
O        -3.714897    0.637811   -0.381480
O        -3.289868   -1.407906    0.321696
H        -2.551138   -1.900162    0.696029
H        -0.758512   -1.906086   -0.166412
