10
0 1
C         2.053476    0.000001    0.000003
C         0.597824   -0.000006   -0.000007
H         2.444428   -0.269013   -0.981888
H         2.444418   -0.715839    0.723921
H         2.444412    0.984854    0.257979
C        -0.597824    0.000009   -0.000003
C        -2.053476   -0.000001    0.000003
H        -2.444422   -0.268910   -0.981919
H        -2.444426    0.984818    0.258087
H        -2.444408   -0.715928    0.723840
