17
0 1
C        -1.125267   -0.076549    0.948883
C         0.224166   -0.713037    0.703079
Cl        -2.119528    0.017145   -0.544620
H        -1.039208    0.940713    1.319571
H        -1.706166   -0.657385    1.659671
C         1.137257    0.008150   -0.286022
H         0.071767   -1.741731    0.369142
H         0.728031   -0.771038    1.675210
C         2.435517   -0.771102   -0.451428
H         2.988628   -0.811347    0.490382
H         3.081953   -0.303798   -1.195110
H         2.245326   -1.797053   -0.770252
C         1.418190    1.446723    0.128968
H         0.627584    0.027584   -1.252596
H         1.871376    1.484782    1.123227
H         0.512509    2.052961    0.146175
H         2.111006    1.919723   -0.567775
