15
0 1
C        -0.732303   -0.737961    0.164909
C         0.481316    0.020297   -0.350283
N         0.450382    1.375971    0.193486
H        -0.289909    1.906667   -0.247851
H         1.319142    1.858842    0.004870
N        -1.963130   -0.008574   -0.120236
H        -0.590016   -0.930893    1.236105
H        -0.779636   -1.704085   -0.340953
H        -2.111413    0.713375    0.572445
H        -2.767020   -0.619309   -0.093394
C         1.767294   -0.665996    0.066170
H         0.419894    0.024820   -1.447378
H         1.859887   -0.671054    1.153335
H         2.637424   -0.151386   -0.345332
H         1.793038   -1.696801   -0.289362
