15
0 1
C        -0.221410    1.152056    0.036165
C         1.154560    1.219711    0.045545
C         1.885806    0.047974    0.008375
C         1.231721   -1.167578   -0.041025
C        -0.150276   -1.211936   -0.040131
C        -0.916299   -0.049280    0.001076
F        -0.886632    2.316905    0.063055
F         1.934509   -2.288643   -0.093110
F        -0.711491   -2.403353   -0.107551
F         1.773133    2.390774    0.089253
F         3.205158    0.091816    0.011869
C        -2.417763   -0.145640    0.059036
O        -2.973965   -1.098753    0.504127
O        -3.111602    0.890183   -0.429538
H        -2.545586    1.629215   -0.682595
