10
0 2
C        -0.000005    0.000001    0.000006
N         0.272182    1.413970   -0.000005
O        -0.437575    2.085841   -0.706311
O         1.180651    1.774343    0.706290
N        -1.360629   -0.471268   -0.000010
O        -1.587599   -1.421877   -0.706315
O        -2.126964    0.135291    0.706284
N         1.088444   -0.942699    0.000020
O         2.025175   -0.663975   -0.706297
O         0.946319   -1.909626    0.706339
