13
0 2
C        -0.000002   -0.000023   -0.157525
C         1.251113   -0.783923    0.015509
H         1.170315   -1.777664   -0.428905
H         1.491295   -0.934329    1.079855
H         2.110060   -0.277804   -0.429022
C         0.053352    1.475443    0.015453
H         0.954279    1.902324   -0.429135
H         0.063709    1.758684    1.079788
H        -0.814504    1.966258   -0.428934
C        -1.304464   -0.691516    0.015586
H        -1.295674   -1.688506   -0.428807
H        -2.124632   -0.124691   -0.428922
H        -1.554841   -0.824161    1.079945
