21
0 1
C         0.635427   -1.544112   -0.189453
C         1.940152   -1.940980   -0.198840
C         2.977533   -1.000426   -0.070628
C         2.680654    0.323831    0.040270
C         1.341010    0.771496    0.045840
C         0.290069   -0.177475   -0.043819
C        -1.050760    0.303966   -0.036142
C         1.033250    2.147797    0.118050
C        -0.257505    2.578855    0.080253
C        -1.304137    1.647009   -0.003612
H        -2.331839    1.981857   -0.030884
H         1.848179    2.856733    0.191572
H        -0.485036    3.635118    0.121553
H        -0.141051   -2.283264   -0.327526
H         2.179860   -2.988900   -0.319529
H         4.007224   -1.331140   -0.076791
H         3.470876    1.059858    0.116964
C        -2.245936   -0.595288   -0.042042
O        -3.219971   -0.400596   -0.703862
O        -2.203762   -1.648371    0.803057
H        -1.396894   -1.626577    1.331830
