11
0 1
C        -0.574766    0.151758    0.000001
O        -0.552732    1.343301    0.000000
O        -1.759060   -0.502060   -0.000003
C         0.648292   -0.736709    0.000001
C         1.946524    0.045892    0.000001
H         0.587249   -1.390944   -0.874864
H         0.587249   -1.390945    0.874866
H         2.011545    0.686772   -0.877328
H         2.800276   -0.630849   -0.000000
H         2.011547    0.686770    0.877331
H        -1.623833   -1.456382   -0.000003
