28
0 1
C        -1.533204   -0.695032   -1.096578
C        -2.676544   -1.446585   -0.911636
C        -3.576149   -1.108869    0.088692
C        -1.258892    0.409261   -0.294564
C        -2.167442    0.738638    0.699494
C        -3.317049   -0.014998    0.891548
H        -4.012062    0.260318    1.674097
H        -4.472921   -1.695533    0.236975
H        -0.829518   -0.970454   -1.872936
H        -2.868885   -2.299865   -1.548807
H        -1.988390    1.592771    1.337128
C         0.023843    1.181644   -0.534611
C         1.246707    0.355007   -0.186123
C         2.332733    0.310264   -1.048292
C         0.084380    2.533187    0.173484
H         0.072474    1.376759   -1.609102
H         0.993846    3.059940   -0.112948
H         0.105049    2.414271    1.257089
H        -0.771025    3.156462   -0.088861
C         1.325089   -0.338643    1.015424
C         2.462075   -1.052550    1.347297
C         3.541943   -1.088596    0.479418
C         3.473376   -0.405282   -0.721426
H         4.308250   -0.430789   -1.409515
H         2.284316    0.842064   -1.991150
H         2.504139   -1.589067    2.286204
H         4.429492   -1.651007    0.736992
H         0.480042   -0.330546    1.692076
