7
0 1
C         0.619623    0.000015    0.593610
C        -0.904367    0.000025    0.628894
O        -1.510985    0.000079    1.639635
Cl        -1.684921   -0.000046   -0.939493
Cl         1.219949    1.467195   -0.179522
H         0.961626    0.000043    1.621668
Cl         1.219956   -1.467202   -0.179442
