16
0 1
C         2.146643   -0.698681   -0.078679
C         1.358821    0.564125    0.229993
C        -0.005860    0.614956   -0.434212
H         1.906876    1.442687   -0.117005
H         1.223996    0.677491    1.306453
N        -0.818853   -0.574204    0.024197
O        -1.019952   -0.684336    1.213488
O        -1.218276   -1.341247   -0.823067
H         2.288790   -0.825741   -1.152881
H         1.640249   -1.587561    0.299155
H         3.130538   -0.659974    0.387116
C        -0.785453    1.874311   -0.115341
H         0.079342    0.466380   -1.508325
H        -0.914003    1.981445    0.960284
H        -1.766728    1.863720   -0.588579
H        -0.236167    2.737379   -0.489536
