11
0 1
C         0.648293   -0.736709    0.000003
C        -0.574767    0.151758   -0.000000
O        -0.552731    1.343301   -0.000005
O        -1.759060   -0.502059    0.000002
H        -1.623831   -1.456382    0.000005
C         1.946523    0.045891   -0.000001
H         0.587248   -1.390948   -0.874859
H         0.587248   -1.390939    0.874872
H         2.011547    0.686766   -0.877333
H         2.800278   -0.630847    0.000003
H         2.011547    0.686776    0.877324
