13
0 2
C        -0.000001   -0.000003   -0.157571
C        -0.947390   -1.132360    0.015495
H        -1.920738   -0.916673   -0.429059
H        -1.129281   -1.349636    1.079846
H        -0.563240   -2.052420   -0.428881
C        -0.506983    1.386620    0.015655
H        -1.495984    1.513920   -0.428445
H         0.166307    2.121807   -0.429021
H        -0.603950    1.652738    1.080058
C         1.454372   -0.254260    0.015407
H         1.733606   -0.302945    1.079742
H         2.059069    0.538360   -0.429179
H         1.754226   -1.205130   -0.428979
