18
0 1
C        -1.227645    0.388977   -0.000000
O        -1.716293    1.487721   -0.000001
O        -1.960066   -0.732209    0.000001
C         0.233146    0.120424   -0.000001
C        -3.373763   -0.545071    0.000000
H        -3.803841   -1.541863   -0.000000
H        -3.684835    0.006276   -0.885530
H        -3.684836    0.006275    0.885532
C         0.747365   -1.169967   -0.000002
C         1.094293    1.209904    0.000000
C         2.461593    1.010991    0.000002
C         2.973338   -0.277028    0.000001
C         2.116480   -1.365557   -0.000001
H         2.516780   -2.370445   -0.000001
H         0.072329   -2.012820   -0.000003
H         3.130822    1.860745    0.000003
H         4.044133   -0.432971    0.000002
H         0.671472    2.204666    0.000001
