10
0 2
C         1.309727   -0.240877    0.000000
C         0.068092    0.570392   -0.000002
H         1.734660   -0.605735    0.924965
H         1.734650   -0.605752   -0.924962
C        -1.207605   -0.284393    0.000001
H         0.049708    1.222450   -0.876974
H         0.049709    1.222456    0.876966
H        -1.246468   -0.925861   -0.880924
H        -2.097073    0.347563   -0.000001
H        -1.246468   -0.925855    0.880931
