20
0 2
C         1.096980   -1.299659   -0.000001
C         1.595607    0.005347   -0.000000
C         0.693053    1.041441    0.000000
C        -0.710177    0.834328    0.000000
C        -0.270574   -1.535580   -0.000001
C        -1.190431   -0.506967   -0.000000
H        -0.628713   -2.557971   -0.000001
C        -1.571458    1.931027    0.000001
H        -2.644268    1.819175    0.000001
H        -1.174804    2.936243    0.000001
H         1.784738   -2.136316   -0.000001
C        -2.659584   -0.797982   -0.000000
H        -2.839480   -1.871573   -0.000001
H        -3.151709   -0.374954   -0.878202
H        -3.151709   -0.374955    0.878202
H         1.054203    2.063266    0.000001
C         3.076028    0.253692   -0.000000
H         3.548577   -0.188280    0.878811
H         3.297934    1.319757    0.000002
H         3.548576   -0.188277   -0.878814
