24
0 1
C        -1.099174   -0.711428    1.004640
C        -2.258380   -1.227260    0.448033
C        -2.884435   -0.563455   -0.592020
C        -0.544746    0.471354    0.535028
C        -1.186480    1.129890   -0.508154
C        -2.344008    0.620315   -1.068242
H        -2.829376    1.150574   -1.877262
H        -3.790608   -0.962943   -1.027503
H        -0.615014   -1.236893    1.818723
H        -2.673558   -2.150791    0.830043
H        -0.773497    2.058586   -0.884049
C         0.732623    1.019752    1.110153
C         1.945335    0.819338    0.198667
H         0.927299    0.546726    2.075381
H         0.609806    2.087478    1.304781
C         2.306765   -0.639345   -0.035565
H         2.803241    1.337329    0.636907
H         1.754464    1.302475   -0.764232
C         3.521016   -0.805173   -0.935370
H         1.452273   -1.159769   -0.473454
H         2.495210   -1.120890    0.928991
H         3.344089   -0.360332   -1.916515
H         3.764995   -1.856922   -1.087785
H         4.399578   -0.318554   -0.507045
