10
0 2
C         0.000000    0.535674   -0.039292
C        -1.287309   -0.197813    0.002362
H        -2.137776    0.453846   -0.195247
H        -1.457549   -0.665832    0.982710
H        -1.306269   -1.013072   -0.728055
C         1.287309   -0.197813    0.002362
H        -0.000000    1.609835    0.088589
H         1.306270   -1.013070   -0.728057
H         1.457548   -0.665834    0.982709
H         2.137776    0.453847   -0.195244
