7
0 1
C         0.465306   -0.061092    0.000001
C        -0.794828    0.848068    0.000008
O        -0.755661    2.020976    0.000019
Cl        -2.302507   -0.041165   -0.000006
Cl         1.904400    0.944920    0.000020
Cl         0.435002   -1.066299    1.454107
Cl         0.435012   -1.066260   -1.454133
