10
0 2
C         1.309727   -0.240877    0.000002
C         0.068092    0.570392   -0.000010
H         1.734681   -0.605694    0.924973
H         1.734629   -0.605793   -0.924955
C        -1.207605   -0.284393    0.000007
H         0.049706    1.222437   -0.876992
H         0.049710    1.222469    0.876948
H        -1.246468   -0.925874   -0.880908
H        -2.097073    0.347563   -0.000006
H        -1.246468   -0.925841    0.880946
