28
0 1
C        -2.102366    0.387902    0.711362
C        -3.266997   -0.315392    0.978384
C        -3.631872   -1.386892    0.184986
C        -2.826833   -1.752240   -0.882677
C        -1.666505   -1.050283   -1.146460
C        -1.289532    0.025552   -0.351567
H        -1.839618    1.230092    1.338204
H        -1.038654   -1.341457   -1.979589
H        -3.892104   -0.016706    1.809260
H        -4.542322   -1.933046    0.392012
C         0.035354    2.135212   -0.052976
O        -0.487666    3.073423   -0.571198
O         0.648873    2.263718    1.135643
H         1.089342    1.436931    1.379346
C         0.014924    0.733440   -0.666583
H        -3.106903   -2.584779   -1.514307
C         1.238484   -0.081052   -0.293989
H         0.039266    0.914733   -1.740961
C         2.409445    0.069735   -1.028334
C         3.557272   -0.616955   -0.678376
C         1.241854   -0.939102    0.799636
C         2.393904   -1.623094    1.155464
C         3.553447   -1.464084    0.418322
H         4.458367   -0.490987   -1.263570
H         4.450719   -2.002225    0.692572
H         2.418404    0.734135   -1.883698
H         0.331381   -1.090313    1.364839
H         2.378991   -2.289978    2.007172
