17
0 2
C         0.536385    1.362162    0.000000
C         0.049999    0.784654    1.280455
C         0.049999   -0.746013    1.257396
H        -0.983888    1.121684    1.464665
H         0.638153    1.155913    2.121404
C        -0.624109   -1.281392   -0.000000
H        -0.445409   -1.131591    2.150566
H         1.083141   -1.103933    1.287848
C         0.049999   -0.746013   -1.257396
H        -1.678924   -0.985408   -0.000000
H        -0.606868   -2.373091   -0.000000
C         0.049999    0.784654   -1.280455
H        -0.445409   -1.131591   -2.150566
H         1.083141   -1.103933   -1.287848
H         1.028163    2.326039    0.000000
H         0.638153    1.155913   -2.121404
H        -0.983888    1.121684   -1.464665
