12
0 1
C         0.042413    0.115186    0.000002
O        -0.061008    1.312347    0.000000
O        -1.009360   -0.715650   -0.000000
C         1.314299   -0.641667   -0.000001
C        -2.290658   -0.088596   -0.000000
H        -3.015958   -0.896279   -0.000003
H        -2.409647    0.533376   -0.885503
H        -2.409649    0.533372    0.885505
C         2.474278   -0.009574    0.000000
H         1.239385   -1.720548   -0.000002
H         2.504982    1.072342    0.000002
H         3.411846   -0.547938   -0.000000
