22
0 1
C        -0.414722    1.452870    1.120943
C        -0.415359    2.836133    1.121612
C         0.000000    3.533792    0.000000
C         0.000000    0.739577    0.000000
C         0.414722    1.452870   -1.120943
C         0.415359    2.836133   -1.121612
H         0.749294    3.371799   -2.000496
H        -0.000000    4.615574    0.000000
H        -0.761510    0.916180    1.994075
H        -0.749294    3.371799    2.000496
H         0.761510    0.916180   -1.994075
C        -0.000000   -0.739577    0.000000
C         0.414722   -1.452870    1.120943
C        -0.414722   -1.452870   -1.120943
C        -0.415359   -2.836133   -1.121612
C        -0.000000   -3.533792    0.000000
C         0.415359   -2.836133    1.121612
H         0.749294   -3.371799    2.000496
H         0.761510   -0.916180    1.994075
H        -0.749294   -3.371799   -2.000496
H         0.000000   -4.615574    0.000000
H        -0.761510   -0.916180   -1.994075
