16
0 1
C         1.580152    0.000019   -0.021651
N         2.478437   -0.000013   -0.731246
C         0.417177    0.000059    0.864233
C        -1.300963   -0.773579   -0.667034
C        -1.301089    0.773456   -0.667058
C        -0.501303    1.196539    0.572826
H        -2.307791    1.187436   -0.647153
H        -0.821375    1.149914   -1.569562
H         0.045670    2.127204    0.435698
H        -1.161576    1.322710    1.432034
C        -0.501270   -1.196478    0.572963
H         0.784310    0.000125    1.890591
H        -1.161601   -1.322514    1.432147
H         0.045716   -2.127162    0.436013
H        -0.821039   -1.149981   -1.569451
H        -2.307595   -1.187735   -0.647271
