26
0 1
C        -1.538820    0.635992    0.507367
C        -0.690271    1.835046    0.790097
S         0.615304    2.120239   -0.458169
H        -0.223178    1.759326    1.770281
H        -1.279546    2.751545    0.768461
C         1.509045    0.594655   -0.321779
C         1.206376   -0.468848   -1.161382
C         2.510343    0.452116    0.630486
C         3.193903   -0.745360    0.748357
C         2.885624   -1.805402   -0.088848
C         1.893835   -1.664550   -1.044485
H         1.649131   -2.490011   -1.699553
H         0.422300   -0.355622   -1.896780
H         3.972626   -0.849230    1.492347
H         3.421801   -2.740758    0.002113
H         2.750694    1.286758    1.275393
C        -2.516649    0.673388   -0.479862
C        -1.331454   -0.549605    1.197089
C        -2.084067   -1.676637    0.909749
C        -3.055746   -1.628975   -0.073252
C        -3.271250   -0.447965   -0.767731
H        -2.676685    1.589740   -1.034544
H        -4.031295   -0.402641   -1.536620
H        -1.906617   -2.594451    1.454507
H        -3.645378   -2.507460   -0.299198
H        -0.563927   -0.594152    1.959446
