21
0 1
C         2.964013    0.112658   -0.562541
C         1.556688   -0.412511   -0.328223
H         3.436956   -0.376107   -1.414839
H         3.597945   -0.054617    0.310511
H         2.954051    1.186564   -0.759782
C         0.871388    0.250145    0.856793
C        -0.534721   -0.284940    1.133043
H         0.833672    1.331329    0.696611
H         1.479648    0.102474    1.753331
C        -1.509004   -0.090502    0.003747
C        -2.108324   -1.115003   -0.584625
H        -1.910314   -2.134886   -0.280361
H        -2.819180   -0.971105   -1.388483
H         1.588189   -1.493694   -0.163573
H         0.953754   -0.266104   -1.227517
H        -0.928378    0.217251    2.022767
H        -0.474061   -1.348463    1.373096
C        -1.773727    1.324840   -0.413470
H        -0.873393    1.793394   -0.816753
H        -2.086712    1.929531    0.441416
H        -2.550054    1.376315   -1.174769
