8
0 1
C         0.385125    0.000000    0.050011
C        -0.738868    0.000000    1.076412
Cl         0.323772   -1.447169   -0.964344
Cl         1.906765   -0.000002    0.976827
Cl         0.323775    1.447171   -0.964341
Cl        -2.353893    0.000000    0.355332
H        -0.642334    0.889527    1.691205
H        -0.642334   -0.889526    1.691206
