23
0 1
C         3.306343   -0.411434    0.044279
C         2.004380    0.267567   -0.352475
H         3.427854   -0.421353    1.129246
H         3.329456   -1.447802   -0.298057
C         0.783001   -0.426032    0.234073
H         1.917604    0.284332   -1.443204
H         2.033521    1.311067   -0.032713
C        -0.566881    0.131288   -0.215824
H         0.836364   -0.387877    1.328313
H         0.826467   -1.486873   -0.032279
C        -1.696557   -0.770568    0.282876
C        -3.077107   -0.424951   -0.255288
H        -3.417906    0.552087    0.086821
H        -3.816327   -1.158299    0.068472
H        -3.079239   -0.413254   -1.347346
H         4.170762    0.098991   -0.381627
H        -1.711686   -0.743577    1.377553
C        -0.760084    1.576548    0.229103
H        -0.586275    0.108002   -1.312698
H        -0.741847    1.645732    1.320173
H        -1.711824    1.980245   -0.114099
H         0.023492    2.226219   -0.158564
H        -1.458984   -1.802146    0.009544
