11
0 1
C        -1.309986   -0.235385   -0.000006
C         0.000000    0.589540   -0.000002
F        -1.380147   -1.002609    1.080514
F        -1.380139   -1.002613   -1.080523
F        -2.340242    0.600368   -0.000011
C         1.309986   -0.235385    0.000007
F        -0.000005    1.365267    1.091866
F         0.000005    1.365261   -1.091874
F         1.380152   -1.002609   -1.080513
F         1.380134   -1.002613    1.080525
F         2.340242    0.600368    0.000017
