18
0 1
C         0.431639    0.006169    0.011715
O         0.448896   -0.024852    1.442350
H         0.479587   -0.942701    1.730022
C         1.655323   -0.725897   -0.522865
H         1.704527   -0.669928   -1.610992
H         1.625628   -1.782219   -0.244975
H         2.564107   -0.288022   -0.110877
C         0.493352    1.478764   -0.352190
H         1.433577    1.907063   -0.006481
H        -0.319115    2.026627    0.120912
H         0.424942    1.613076   -1.432121
C        -0.843867   -0.666026   -0.508284
C        -2.143370   -0.034258   -0.036029
H        -0.814538   -1.714538   -0.193193
H        -0.809126   -0.679756   -1.600847
H        -2.152146    0.065948    1.048919
H        -2.997048   -0.646106   -0.328314
H        -2.290020    0.956853   -0.464937
