11
0 2
C        -0.767656   -1.201556   -0.000675
C        -0.090025   -0.000001   -0.007146
C        -0.767649    1.201560   -0.000675
H        -1.848479    1.228992    0.019530
H        -0.242408    2.146260   -0.016529
H        -1.848486   -1.228980    0.019530
H        -0.242422   -2.146260   -0.016529
C         1.417783   -0.000004    0.001807
H         1.816579   -0.882824   -0.496100
H         1.793909    0.000043    1.026417
H         1.816582    0.882769   -0.496181
