13
0 1
C         2.034075   -0.000002    0.000001
N         3.179904    0.000001   -0.000002
C         0.602300   -0.000001    0.000001
C        -2.162625    0.000001   -0.000000
C        -1.472054   -1.201044    0.000000
C        -0.090501   -1.206626    0.000000
C        -0.090498    1.206625    0.000000
C        -1.472052    1.201045    0.000000
H        -2.012006   -2.137920   -0.000000
H         0.458566   -2.137671    0.000001
H        -3.244321    0.000002   -0.000001
H        -2.012002    2.137923   -0.000000
H         0.458570    2.137668    0.000001
