13
0 2
C         1.017345   -1.069949    0.015515
C        -0.000003    0.000003   -0.157559
H         1.212704   -1.275199    1.079882
H         1.975048   -0.792970   -0.429055
H         0.692360   -2.012573   -0.428799
C         0.417940    1.416015    0.015532
H         1.396729    1.605885   -0.428864
H         0.498101    1.687789    1.079895
H        -0.300833    2.106923   -0.428960
C        -1.435285   -0.346069    0.015503
H        -2.089097    0.406631   -0.428944
H        -1.710739   -0.412484    1.079868
H        -1.674247   -1.314000   -0.428971
