7
0 1
C         1.216914    0.022113    0.000004
N         2.183951   -0.585432   -0.000002
C        -1.216914    0.022113    0.000000
N        -2.183951   -0.585432   -0.000005
C        -0.000000    0.829847    0.000002
H        -0.000001    1.475803    0.879765
H         0.000001    1.475804   -0.879759
