19
0 1
C        -0.816639    1.290997   -0.000003
C        -2.171290    1.004819   -0.000002
C        -2.604792   -0.308963    0.000000
C         0.132273    0.275586   -0.000002
C        -0.317414   -1.041625    0.000000
C        -1.669512   -1.331102    0.000002
H        -1.995699   -2.363029    0.000003
H        -3.662308   -0.536394    0.000001
H        -0.486494    2.322516   -0.000005
H        -2.890221    1.813721   -0.000003
H         0.394658   -1.857219    0.000001
C         1.574804    0.621598   -0.000002
C         2.578594   -0.212899   -0.745573
C         2.578592   -0.212892    0.745579
H         1.762710    1.687290   -0.000007
H         3.378029    0.299958   -1.261205
H         2.206805   -1.089964   -1.256712
H         2.206801   -1.089952    1.256725
H         3.378025    0.299969    1.261208
