11
0 2
C        -0.000000    1.208482   -1.001928
C        -0.000000    1.205341    0.385075
C         0.000000   -0.000000    1.067173
C        -0.000000   -1.205341    0.385075
C        -0.000000   -1.208482   -1.001928
C        -0.000000    0.000000   -1.631319
F        -0.000000    2.361319   -1.659792
F         0.000000   -2.345448    1.062800
F        -0.000000   -2.361319   -1.659792
F         0.000000    2.345448    1.062800
F         0.000000   -0.000000    2.392552
