13
0 2
C        -0.145507    1.234692   -0.000001
C         0.586290   -0.000001   -0.000004
C         1.932199   -0.000002   -0.000053
O         3.091239    0.000001    0.000017
C        -1.512782    1.205586    0.000009
C        -2.219210    0.000001    0.000012
C        -1.512784   -1.205585    0.000009
C        -0.145509   -1.234693   -0.000001
H         0.390290   -2.172866   -0.000003
H        -3.299327    0.000002    0.000018
H        -2.053679   -2.142907    0.000016
H         0.390293    2.172865   -0.000003
H        -2.053676    2.142909    0.000016
