17
0 1
C        -0.408806    1.251941   -0.063761
C         0.399932    0.145218   -0.290433
C        -1.754709    1.065713    0.188658
C        -2.257031   -0.221716    0.207545
C        -1.378995   -1.265099   -0.029425
N        -0.087453   -1.094096   -0.271399
H        -3.302677   -0.418205    0.398670
H        -1.733192   -2.290395   -0.026484
H         0.018076    2.245611   -0.087718
H        -2.402264    1.914457    0.366601
C         1.873823    0.281628   -0.542483
C         2.703173   -0.219828    0.635557
H         2.113918    1.324616   -0.754995
H         2.121698   -0.299198   -1.432460
H         2.502007    0.366313    1.533605
H         3.769392   -0.151724    0.418799
H         2.460890   -1.259938    0.849830
