10
0 1
C         0.949172   -0.747133   -0.000002
C        -0.082748    0.339961   -0.000008
O         0.097536    1.503244   -0.000007
Cl        -1.756984   -0.314704    0.000009
C         2.367391   -0.209321   -0.000004
H         0.749416   -1.377164   -0.869171
H         0.749415   -1.377154    0.869175
H         2.553894    0.405585   -0.878939
H         3.078933   -1.033898    0.000001
H         2.553893    0.405595    0.878924
