17
0 1
C         0.447057   -0.479516   -1.379657
C        -0.000005   -0.000005    0.000015
H         1.306887    0.092405   -1.733605
H        -0.354405   -0.367143   -2.112274
H         0.732749   -1.532822   -1.354822
C         1.145914   -0.172891    0.995119
H         1.446072   -1.219851    1.069036
H         0.853332    0.162745    1.991829
H         2.020197    0.405379    0.690286
C        -0.390705    1.474760   -0.075444
H         0.451792    2.087087   -0.402472
H        -0.715037    1.844537    0.899114
H        -1.209542    1.627581   -0.781023
C        -1.202263   -0.822351    0.459974
H        -0.950753   -1.882767    0.522797
H        -2.037869   -0.716968   -0.234530
H        -1.543409   -0.500168    1.445623
