9
0 2
C         1.962037   -0.000004    0.001030
C         0.511283    0.000085   -0.005565
H         2.356819   -0.879330   -0.509690
H         2.346641   -0.008820    1.023389
H         2.356917    0.887802   -0.494666
C        -0.704765    0.000018   -0.001430
C        -2.070402   -0.000026    0.001821
H        -2.624676    0.927729    0.002957
H        -2.624616   -0.927818    0.002877
