14
0 1
C         0.528220    1.247432    0.000001
C        -0.208707    0.078282   -0.000002
C         1.906570    1.143712    0.000002
C         2.483620   -0.113849    0.000001
C         1.659191   -1.226434   -0.000002
N         0.337667   -1.132551   -0.000004
H         3.557436   -0.236985    0.000002
H         2.074661   -2.226749   -0.000003
H         0.013301    2.196749    0.000002
H         2.524024    2.031846    0.000004
C        -1.712900    0.118465   -0.000003
O        -2.275863   -1.085887    0.000005
H        -1.547365   -1.737436    0.000008
O        -2.339347    1.137735   -0.000001
