18
0 1
C         0.138131   -0.156301    0.000000
O        -1.051012   -0.939457    0.000000
H        -1.807331   -0.342987    0.000000
C         0.243311    0.683728   -1.264002
C         0.243311    0.683728    1.264002
C         0.243311   -0.143060    2.539151
H        -0.590599    1.395084    1.277211
H         1.154507    1.284791    1.207613
H        -0.652667   -0.758924    2.603101
H         0.285078    0.493672    3.423105
H         1.105608   -0.811733    2.568859
C         0.243311   -0.143060   -2.539151
H         1.154507    1.284791   -1.207613
H        -0.590599    1.395084   -1.277211
H         1.105608   -0.811733   -2.568859
H         0.285078    0.493672   -3.423105
H        -0.652667   -0.758924   -2.603101
H         0.943310   -0.897344    0.000000
