12
0 2
C        -0.609153    0.000000   -0.000001
C        -1.278686   -1.312504   -0.000001
H        -2.358452   -1.188958   -0.000009
H        -0.980123   -1.901447    0.870594
H        -0.980110   -1.901453   -0.870587
N         0.802934    0.000000   -0.000000
O         1.375999   -1.085586    0.000002
O         1.375999    1.085586   -0.000001
C        -1.278686    1.312504    0.000001
H        -2.358452    1.188958    0.000008
H        -0.980122    1.901448   -0.870594
H        -0.980110    1.901452    0.870587
