9
0 1
C        -0.874330    0.110537    0.000004
C         0.480781    0.649756   -0.000028
N        -1.930498   -0.329480    0.000048
C         1.543537   -0.446686   -0.000012
H         0.588073    1.290821    0.876215
H         0.588042    1.290765   -0.876314
H         1.450529   -1.078594    0.881666
H         2.536421    0.000378   -0.000046
H         1.450495   -1.078651   -0.881645
