17
0 2
C         0.050037    0.784633    1.280495
C         0.050037   -0.746054    1.257372
C         0.536214    1.362271   -0.000000
H         0.638348    1.155826    2.121365
H        -0.983796    1.121681    1.464942
C        -0.624111   -1.281387    0.000000
H        -0.445327   -1.131647    2.150556
H         1.083180   -1.103971    1.287777
C         0.050037   -0.746054   -1.257372
H        -1.678910   -0.985352    0.000000
H        -0.606928   -2.373084    0.000000
C         0.050037    0.784633   -1.280495
H        -0.445327   -1.131647   -2.150556
H         1.083180   -1.103971   -1.287777
H         0.638348    1.155826   -2.121365
H        -0.983796    1.121681   -1.464942
H         1.027510    2.326404   -0.000000
