12
0 1
C         1.576264   -0.520636   -0.000000
C         0.662799    0.661966    0.000000
H         1.042172   -1.468234   -0.000005
H         2.228446   -0.503450    0.876231
H         2.228452   -0.503445   -0.876227
C        -0.662799    0.661966    0.000000
C        -1.576264   -0.520636   -0.000000
H        -2.228452   -0.503446   -0.876228
H        -2.228447   -0.503450    0.876231
H        -1.042172   -1.468234   -0.000004
H         1.159854    1.627151    0.000001
H        -1.159854    1.627151    0.000001
