18
0 1
C        -1.953425   -0.966306   -0.096251
C        -1.303442    0.372378    0.212796
C         0.143944    0.489431   -0.275299
C         1.036135   -0.487152    0.427690
C         1.728228   -1.452615   -0.149983
H        -2.984954   -0.993268    0.255983
H        -1.414973   -1.788449    0.375152
H        -1.964054   -1.155363   -1.171571
H        -1.326007    0.556556    1.291709
H        -1.886249    1.176252   -0.244459
H         1.687186   -1.612596   -1.221162
H         2.361544   -2.118530    0.420984
H         1.103745   -0.360733    1.506727
C         0.662599    1.912887   -0.082454
H         0.161699    0.254883   -1.344723
H         0.668576    2.182222    0.976150
H         0.029043    2.631122   -0.604998
H         1.680215    2.016171   -0.458795
