7
0 2
C        -0.690311    0.000000   -0.001905
C         0.789682    0.000000   -0.017434
H        -1.101129   -0.884229   -0.491857
H         1.345995    0.924610    0.038200
H        -1.101128    0.884245   -0.491828
H        -1.085956   -0.000017    1.023319
H         1.345993   -0.924611    0.038200
