10
0 2
C         0.000000    0.535674   -0.039292
C        -1.287309   -0.197813    0.002362
H        -2.137777    0.453848   -0.195237
H        -1.457544   -0.665841    0.982707
H        -1.306273   -1.013065   -0.728062
C         1.287309   -0.197814    0.002362
H         0.000000    1.609835    0.088589
H         1.457553   -0.665826    0.982713
H         2.137775    0.453845   -0.195254
H         1.306266   -1.013076   -0.728050
