8
0 2
C        -1.186600   -0.152509   -0.000002
C         0.211722    0.387679    0.000015
H        -1.187643   -1.240507   -0.000016
H        -1.732467    0.196433   -0.878560
H        -1.732475    0.196411    0.878558
C         1.304974   -0.315932   -0.000007
H         0.302885    1.477815    0.000003
H         2.369127   -0.145576   -0.000021
