8
0 2
C        -1.335384    0.097699   -0.000007
C        -0.125677   -0.379143    0.000009
H        -1.518900    1.174000   -0.000030
H        -2.212421   -0.539599    0.000020
C         1.264643    0.075757    0.000000
H         1.314268    1.172103   -0.000038
H         1.797785   -0.286223   -0.880355
H         1.797776   -0.286161    0.880386
