14
0 1
C         2.717483    1.152105   -0.000015
C         1.331448    1.227739   -0.000015
N         3.391497    0.015071   -0.000006
C         2.685010   -1.111181    0.000004
C         1.306345   -1.146140    0.000004
C         0.606947    0.053281   -0.000006
H         3.304819    2.063229   -0.000023
H         0.845563    2.190037   -0.000023
H         3.250949   -2.035307    0.000012
H         0.787564   -2.093620    0.000012
C        -0.909050    0.015719    0.000000
Cl        -1.647859    1.626487   -0.000047
Cl        -1.480724   -0.853757    1.448401
Cl        -1.480739   -0.853846   -1.448341
