11
0 2
C         0.654054    0.380352   -0.000001
C        -0.470479   -0.415587    0.000000
C        -1.864390    0.099181    0.000000
C         1.949011   -0.081444   -0.000000
H        -1.887889    1.188948   -0.000005
H        -2.418935   -0.251131    0.875551
H        -2.418939   -0.251140   -0.875544
H        -0.335777   -1.492833    0.000002
H         2.789176    0.597092   -0.000001
H         2.162312   -1.142510    0.000002
H         0.500875    1.456561   -0.000002
