15
0 1
C        -0.302328   -1.200064    0.364532
C         1.041376   -1.186550    0.044279
C         1.731305    0.000001   -0.120198
C         1.041374    1.186551    0.044280
C        -0.302330    1.200063    0.364532
C        -0.978105   -0.000001    0.525404
H        -0.818435   -2.142468    0.482246
Cl         1.885446   -2.685801   -0.152801
C        -2.434710   -0.000003    0.856591
H        -0.818439    2.142466    0.482246
H        -2.716528   -0.885504    1.417752
Cl        -3.446842   -0.000001   -0.630179
H        -2.716529    0.885497    1.417754
Cl         1.885441    2.685804   -0.152800
H         2.781656    0.000002   -0.368244
