15
0 1
C         0.581876    1.655099    0.162304
C        -0.662132    2.125199   -0.217016
C        -1.743145    1.264775   -0.295757
C        -1.558983   -0.070915    0.010828
C        -0.321284   -0.552929    0.390326
C         0.759466    0.313230    0.467919
H         1.424126    2.332516    0.217566
H        -0.796236    3.172107   -0.453079
C         2.102765   -0.203155    0.864814
Cl        -2.905118   -1.161407   -0.078606
H        -2.719930    1.621212   -0.589001
H        -0.201072   -1.602758    0.620270
H         2.695145    0.561666    1.357487
Cl         3.059352   -0.732855   -0.566528
H         2.024613   -1.070119    1.513515
