9
0 2
C        -1.304859    0.170418   -0.000010
C        -0.384585    1.198976    0.000000
N         0.927283    0.972169    0.000006
N        -0.866700   -1.093341   -0.000003
C         0.388758   -1.296158    0.000004
C         1.342234   -0.282991    0.000000
H        -2.372445    0.346890   -0.000012
H        -0.707454    2.232643    0.000002
H         2.406529   -0.472792    0.000020
