20
0 1
C        -2.219661    0.810553    0.306833
C        -0.829698    1.038819   -0.241874
H        -2.924353    1.543928   -0.074847
H        -2.231163    0.841886    1.394108
Cl        -2.880039   -0.795277   -0.155138
C         0.232574    0.119128    0.337687
H        -0.567911    2.080062   -0.025346
H        -0.854699    0.944126   -1.330026
C         1.619734    0.392452   -0.221400
H        -0.041879   -0.919355    0.140410
H         0.250494    0.230925    1.426895
C         2.691133   -0.521266    0.353768
H         1.893694    1.435253   -0.028740
H         1.598487    0.281495   -1.310498
C         4.074589   -0.245223   -0.213215
H         2.415773   -1.561928    0.160579
H         2.711626   -0.410342    1.441839
H         4.088881   -0.380994   -1.296332
H         4.823232   -0.912495    0.214718
H         4.386453    0.780364   -0.006199
