12
0 1
C         0.773570    0.823452    0.110987
C        -0.516874    0.175472    0.448612
C        -1.589619    0.239414   -0.322654
Cl         2.085535   -0.397867   -0.103066
H         1.121066    1.481705    0.903451
H         0.712328    1.381399   -0.818970
C        -2.907403   -0.383915   -0.010703
H        -0.550051   -0.372714    1.384800
H        -1.522236    0.782835   -1.261734
H        -2.883603   -0.910426    0.942734
H        -3.193099   -1.095414   -0.788494
H        -3.696545    0.369815    0.032881
