20
0 2
C        -1.203083    1.914245    0.413679
C        -0.013799    1.218921   -0.045716
H        -1.152034    2.991447    0.412386
H        -2.123999    1.429862    0.696138
N         0.010055   -0.145337   -0.010767
C        -1.035990   -0.970805    0.563336
O         0.939322    1.864184   -0.474443
C         1.181650   -0.819680   -0.546636
C        -2.089691   -1.400310   -0.445472
H        -1.497123   -0.448098    1.399590
H        -0.556305   -1.851132    0.994801
H        -2.610648   -0.535451   -0.856750
H        -2.826646   -2.055050    0.021494
H        -1.634638   -1.940760   -1.275878
C         2.280970   -0.999062    0.487372
H         1.553825   -0.230628   -1.381681
H         0.858884   -1.787165   -0.935487
H         2.624860   -0.026990    0.837111
H         3.130073   -1.528856    0.053828
H         1.928456   -1.573143    1.345974
