8
0 1
C         0.391669   -0.000000   -0.000002
C        -1.161501    0.000013   -0.000031
Cl         0.951203   -1.448110   -0.834204
Cl         0.951109    0.001559    1.671226
Cl         0.951256    1.446514   -0.836926
F        -1.625578   -0.001194   -1.244104
F        -1.625623    1.078022    0.620921
F        -1.625651   -1.076767    0.623023
