7
0 2
C        -0.000000    0.868384    0.000000
C         1.457818    0.814853    0.000000
H        -0.411185    1.334065    0.889839
Cl        -0.701248   -0.833054    0.000000
H        -0.411185    1.334065   -0.889839
H         1.998341    0.697180   -0.927763
H         1.998341    0.697180    0.927763
