17
0 2
C        -1.321505    1.036924    0.000000
C        -0.164695    1.781150    0.000000
C         1.076376    1.157962   -0.000000
C         1.173367   -0.237035   -0.000000
C         0.014518   -0.979603   -0.000000
C        -1.266626   -0.375547   -0.000000
H        -2.287457    1.525246    0.000000
H        -0.220525    2.862014    0.000000
C        -2.430452   -1.147807   -0.000000
C         2.521359   -0.897912    0.000000
H         1.979556    1.755456   -0.000000
H         0.073292   -2.061650   -0.000001
H        -2.382717   -2.227315   -0.000000
H        -3.406051   -0.683346    0.000000
H         3.099750   -0.608143    0.878787
H         3.099759   -0.608128   -0.878775
H         2.430340   -1.982916   -0.000010
