12
0 1
C        -0.329990   -0.522603    0.700194
C         0.968331   -0.100976    0.094208
C         1.822806   -1.013855   -0.341888
Cl        -1.742342    0.050406   -0.263290
H        -0.413531   -1.602951    0.755789
H        -0.463371   -0.096507    1.692494
C         1.240952    1.369060    0.043717
H         1.593920   -2.070742   -0.298685
H         2.782122   -0.734941   -0.757700
H         0.485265    1.879955   -0.554204
H         2.219906    1.574326   -0.384549
H         1.202915    1.804197    1.045411
