11
0 2
C         1.851343   -1.300338    0.000003
C         0.469554   -1.454425   -0.000004
C        -0.358907   -0.344680   -0.000001
C         0.192843    0.927703    0.000007
C         1.564291    1.118124    0.000008
C         2.320562   -0.017859    0.000006
H         2.503693   -2.162208    0.000000
H         0.025074   -2.440095   -0.000010
H         1.971954    2.119717    0.000010
F        -0.609629    1.992551    0.000004
Cl        -2.073657   -0.530678   -0.000008
