12
0 1
C         0.000000    1.378187    0.000000
C         1.201309    0.694730    0.000000
C         1.201309   -0.694730   -0.000000
C         0.000000   -1.378187   -0.000000
C        -1.201309   -0.694730   -0.000000
C        -1.201309    0.694730    0.000000
H         0.000000    2.457634    0.000000
Cl         2.669309    1.593444    0.000000
Cl        -2.669309    1.593444    0.000000
H         0.000000   -2.457634   -0.000000
Cl         2.669309   -1.593444   -0.000000
Cl        -2.669309   -1.593444   -0.000000
