13
0 2
C         1.670945    1.367614   -0.000000
C         0.337638    1.027335    0.000001
C         2.625792    0.363183   -0.000003
C         2.189329   -0.958230   -0.000004
N         0.921698   -1.310699   -0.000003
C        -0.014717   -0.334057   -0.000000
H         1.967059    2.408311    0.000000
H        -0.433110    1.783499    0.000003
C        -1.345646   -0.798684    0.000001
H        -1.556080   -1.855576   -0.000000
Cl        -2.694285    0.236234    0.000004
H         3.682662    0.588532   -0.000004
H         2.910379   -1.768827   -0.000006
