21
0 1
C         2.267569   -1.268963    0.196276
C         0.899419   -1.108644    0.281139
C         3.080526   -0.184376   -0.096504
C         2.507012    1.054121   -0.304927
C         1.131224    1.212021   -0.220063
C         0.308778    0.135171    0.075659
H         0.274777   -1.966824    0.487650
H         2.703078   -2.246706    0.354317
H         4.152896   -0.308919   -0.165344
H         3.127964    1.908805   -0.538622
H         0.710410    2.191696   -0.389776
C        -1.192880    0.294432    0.229657
C        -1.721106    1.651706   -0.195726
H        -1.328456    2.430526    0.459155
H        -2.806238    1.660057   -0.119256
H        -1.447692    1.882544   -1.223204
C        -1.624668   -0.018335    1.655236
Cl        -2.008135   -0.934724   -0.860394
H        -1.158020    0.696896    2.334608
H        -1.318970   -1.018821    1.951628
H        -2.706683    0.058258    1.751054
