16
0 2
C        -0.506378   -0.001454   -0.112133
C         0.749462   -0.725405    0.245107
C         2.047791   -0.040776   -0.164079
H         0.714462   -1.726491   -0.193873
H         0.771968   -0.893481    1.335597
H         2.065175    0.156265   -1.237108
H         2.905647   -0.669234    0.075898
H         2.184553    0.909563    0.351836
C        -0.588581    1.473598    0.062755
H        -0.641003    1.751218    1.127579
H        -1.482718    1.879429   -0.412114
H         0.277194    1.992298   -0.349937
C        -1.774694   -0.778288   -0.103352
H        -2.160741   -0.911057    0.919646
H        -1.639054   -1.778857   -0.517912
H        -2.561082   -0.275695   -0.669399
