7
0 2
C         0.622186    0.372231   -0.481003
C        -0.716493   -0.187267   -0.216914
H         0.581091    1.017602   -1.349727
Cl         1.814047   -0.894646   -0.815076
Cl         1.185656    1.411678    0.877213
Cl        -0.941044   -1.374422    0.964035
Cl        -2.059556    0.732249   -0.700453
