22
0 2
C         0.974931   -0.358616   -0.134717
O         0.685139   -1.486342    0.168992
C         0.017223    0.758395   -0.070559
O         2.184108    0.032039   -0.535770
Cl         0.575220    2.334684    0.094285
C         3.212268   -0.974421   -0.558792
C         3.833628   -1.149812    0.805564
H         3.933704   -0.601841   -1.282257
H         2.782268   -1.905581   -0.923090
H         4.229621   -0.203458    1.173019
H         4.654527   -1.865197    0.745036
H         3.103196   -1.529539    1.517917
C        -1.449428    0.567855   -0.028749
O        -2.197644    1.358467    0.481690
O        -1.819184   -0.545779   -0.649125
C        -3.217869   -0.881286   -0.603351
C        -3.564554   -1.576642    0.690710
H        -3.361423   -1.535427   -1.460051
H        -3.801368    0.027655   -0.738771
H        -2.938034   -2.456506    0.831800
H        -4.608089   -1.892829    0.668304
H        -3.429687   -0.906821    1.538318
