11
0 2
C        -0.660207   -0.206236    0.404733
C         0.614078    0.540316    0.152405
C         1.745884   -0.342921   -0.229612
C        -1.783740   -0.033493   -0.268105
H         0.434903    1.290790   -0.631195
H         1.566445   -1.256555   -0.778514
H         2.768598   -0.029200   -0.077151
H         0.886279    1.111373    1.046581
H        -2.673055   -0.607169   -0.044079
H        -1.856132    0.691976   -1.070134
H        -0.623136   -0.947208    1.197968
