14
0 1
C         0.225370   -0.000022    0.880718
O         0.530304   -0.000050    2.039194
C        -1.231323   -0.000007    0.442674
O         1.061298   -0.000001   -0.138762
Cl        -1.606278   -1.467416   -0.473939
Cl        -1.606266    1.467443   -0.473877
H        -1.847771   -0.000024    1.331961
C         2.465755   -0.000013    0.182004
C         3.224482    0.000029   -1.116741
H         2.678940   -0.881418    0.786384
H         2.678942    0.881352    0.786443
H         2.984477   -0.884078   -1.706066
H         4.295657    0.000021   -0.915216
H         2.984480    0.884177   -1.706006
