11
0 1
C         2.219772   -0.054479    0.000005
C         1.449589   -1.200399    0.000001
N         0.119257   -1.183330    0.000003
C         1.571600    1.170315    0.000004
C         0.192677    1.201689    0.000003
C        -0.472670   -0.015778    0.000008
H         3.298329   -0.120288    0.000007
H         1.911200   -2.180631    0.000002
H         2.134940    2.093927    0.000004
H        -0.360152    2.128710   -0.000000
Cl        -2.210878   -0.014500   -0.000009
