11
0 2
C        -1.222116    1.436240   -0.000001
C        -1.194274    0.046353    0.000000
C         0.000000   -0.653963    0.000000
C         1.194274    0.046353   -0.000001
C         1.222116    1.436240   -0.000001
C         0.000000    2.041611   -0.000002
H        -2.157371    1.977034   -0.000001
Cl        -2.686326   -0.833474    0.000001
Cl         2.686326   -0.833474    0.000000
H         0.000000   -1.732955    0.000001
H         2.157371    1.977034   -0.000002
