17
0 1
C        -3.012416   -0.711544   -0.100652
C        -1.969692   -1.501142    0.352698
C        -0.699682   -0.966985    0.474598
C        -2.786073    0.615850   -0.432384
C        -1.520119    1.150800   -0.307536
C        -0.466236    0.363973    0.146981
H        -4.004822   -1.131615   -0.197854
H        -2.144521   -2.537265    0.608655
H         0.107755   -1.600316    0.812244
H        -3.600588    1.232263   -0.788075
H        -1.321531    2.183833   -0.555937
C         0.870240    1.001247    0.285250
C         2.062148    0.161004    0.710326
Cl         2.532837   -0.980780   -0.580261
H         1.852841   -0.420909    1.604123
H         2.898965    0.827919    0.882685
O         1.035581    2.180018    0.090363
