11
0 1
C         0.000011   -0.000009    0.225898
N         1.385545   -0.352837   -0.355941
O         1.953047   -1.254893    0.187902
N        -0.998359   -1.023480   -0.355883
O        -2.063298   -1.063869    0.187999
N        -0.387210    1.376332   -0.355864
O         0.110341    2.318800    0.187946
Cl         0.000055   -0.000031    1.925531
O         1.737397    0.300765   -1.297010
O        -0.608304   -1.655037   -1.296945
O        -1.129286    1.354294   -1.296844
