15
0 1
C        -0.646106    1.196673    0.245905
C        -1.970183    1.198289   -0.154757
C        -2.634737   -0.000007   -0.356213
C        -1.970173   -1.198297   -0.154746
C        -0.646097   -1.196667    0.245916
C         0.027212    0.000007    0.449710
H        -0.125917    2.134112    0.398883
H        -2.485419    2.136964   -0.308978
C         1.458333    0.000014    0.871168
H        -2.485402   -2.136977   -0.308958
H        -3.670534   -0.000013   -0.668395
H        -0.125900   -2.134100    0.398902
H         1.708132    0.885636    1.447372
Cl         2.574553   -0.000006   -0.546360
H         1.708134   -0.885590    1.447399
