9
0 1
C         0.165447    0.897051    0.000000
C        -1.130024    0.648147    0.000001
C        -1.796642   -0.682861    0.000001
H        -1.773336    1.521934    0.000002
H        -1.075112   -1.496043   -0.000004
H        -2.438025   -0.788854   -0.877215
H        -2.438018   -0.788858    0.877223
Cl         1.395232   -0.324606   -0.000001
H         0.572867    1.896089    0.000001
