14
0 2
C         0.964452   -1.778623    0.000000
C         1.839178   -0.718455    0.000000
C         1.371961    0.591082    0.000000
C         0.000000    0.811155    0.000000
C        -0.895690   -0.228450    0.000000
C        -0.434257   -1.565802    0.000000
H         1.338397   -2.793932    0.000000
H         2.905833   -0.898962    0.000000
C        -1.333168   -2.635558    0.000000
Cl        -0.590284    2.444851    0.000000
H         2.053549    1.428721    0.000000
H        -1.957751   -0.027115    0.000000
H        -2.400193   -2.466834    0.000000
H        -0.979864   -3.656435    0.000000
