18
0 1
C        -0.611682    0.000000    0.370794
C         0.055691    1.257409   -0.151683
C         1.541617    1.256822    0.198793
H        -0.440129    2.137443    0.258183
H        -0.070487    1.294092   -1.236910
C         2.234831   -0.000000   -0.313191
H         1.657987    1.316639    1.285632
H         2.014391    2.149890   -0.212898
C         1.541617   -1.256822    0.198793
H         3.284998    0.000000   -0.016071
H         2.218211    0.000000   -1.407631
C         0.055691   -1.257409   -0.151683
H         1.657987   -1.316639    1.285632
H         2.014391   -2.149890   -0.212898
H        -0.070487   -1.294092   -1.236910
H        -0.440129   -2.137443    0.258183
Cl        -2.360844    0.000000   -0.066822
H        -0.598972    0.000000    1.460720
