14
0 2
C         2.608907    0.290300   -0.095668
C         2.149717   -1.016400   -0.089985
C         0.795287   -1.280333    0.010825
C         1.707609    1.336134    0.006891
C         0.349592    1.087737    0.116328
C        -0.084588   -0.222509    0.108773
H         3.667796    0.493288   -0.176672
H         2.848000   -1.838560   -0.167698
H         0.412194   -2.291007    0.013983
H         2.060289    2.358529    0.008772
H        -0.359440    1.898104    0.206336
O        -1.430099   -0.563611    0.245631
C        -2.360700    0.274718   -0.199557
O        -3.522875    0.133831   -0.124427
