14
0 2
C         1.204136   -1.082099   -0.000000
C         0.009574   -1.763106   -0.000000
C        -1.201196   -1.078330    0.000000
C        -1.166371    0.305871    0.000000
C        -0.000000    1.020130    0.000000
C         1.236854    0.333361   -0.000000
H         2.139916   -1.624908   -0.000000
H         0.006432   -2.844814   -0.000000
C         2.448176    1.029796   -0.000000
F        -2.334427    0.972793    0.000000
H        -2.151795   -1.591519    0.000000
H        -0.032957    2.100857    0.000000
H         2.470708    2.109847   -0.000000
H         3.390502    0.501659   -0.000000
