12
0 1
C         1.873301    0.322642    0.286632
C         0.514790   -0.281176    0.457701
C        -0.531794    0.518274   -0.295495
C         2.888387   -0.267645   -0.318404
H         0.511044   -1.312228    0.102624
H        -0.349054    0.496640   -1.366450
H        -0.558247    1.553643    0.035771
Cl        -2.174669   -0.145046   -0.035946
H         0.243978   -0.300601    1.516000
H         3.850111    0.217632   -0.416396
H         2.796367   -1.264525   -0.733333
H         2.007074    1.322638    0.690263
