15
0 1
C        -0.073663    1.525728    0.173693
C        -1.384617    1.745753   -0.211505
C        -2.273293    0.689537   -0.314211
C        -1.815214   -0.577329   -0.023382
C        -0.516962   -0.823450    0.361541
C         0.367435    0.241606    0.461754
H         0.615705    2.356533    0.247223
H        -1.720856    2.749441   -0.433114
C         1.784623    0.000297    0.864313
F        -2.667432   -1.611345   -0.115143
H        -3.302573    0.832787   -0.610648
H        -0.205899   -1.837653    0.572788
H         2.220992    0.877219    1.332150
Cl         2.823297   -0.378919   -0.557766
H         1.873607   -0.847466    1.536678
