16
0 2
C        -2.634766   -0.029364    0.000002
C        -1.906460    1.155481    0.000000
C        -0.521180    1.120202   -0.000002
C         0.164857   -0.089575   -0.000002
C        -0.555025   -1.288733   -0.000001
C        -1.911795   -1.191058    0.000001
H        -3.716669   -0.019971    0.000004
H        -2.423996    2.105937    0.000001
H         0.025650    2.052138   -0.000002
H        -0.017142   -2.227103   -0.000001
C         1.659047   -0.168686   -0.000002
O         2.214421   -1.240672    0.000001
C         2.451461    1.112141    0.000001
H         2.215244    1.712272   -0.879709
H         3.509468    0.867378    0.000003
H         2.215240    1.712269    0.879712
