23
0 1
C        -2.851747    0.687231    0.389948
C        -1.501470    1.074469   -0.168613
H        -3.625655    1.384379    0.081467
H        -2.835748    0.635034    1.476365
Cl        -3.387904   -0.929604   -0.181526
C        -0.350292    0.208106    0.315417
H        -1.321968    2.115020    0.122332
H        -1.548474    1.060268   -1.260065
C         0.992991    0.639799   -0.251282
H        -0.542505   -0.832378    0.045086
H        -0.311032    0.239416    1.409316
C         2.151588   -0.219569    0.229106
H         1.183429    1.684907    0.014711
H         0.949512    0.608687   -1.344767
C         3.496999    0.204725   -0.339658
H         1.960586   -1.264484   -0.036038
H         2.196416   -0.188990    1.322811
C         4.648223   -0.660912    0.147385
H         3.685942    1.249221   -0.074824
H         3.450963    0.172873   -1.432130
H         4.736059   -0.621436    1.234855
H         5.600028   -0.336823   -0.274539
H         4.499056   -1.705515   -0.132453
