17
0 1
C         1.987464    0.916678   -0.000000
C         0.774146   -0.016442    0.000000
C        -0.455836    0.887031   -0.000001
C         0.803581   -0.888797   -1.251702
H        -0.468287    1.518931   -0.885085
H        -0.468287    1.518932    0.885084
Cl        -2.020004    0.007070   -0.000000
H         1.996618    1.557049   -0.883830
H         2.910134    0.335413    0.000000
H         0.788600   -0.278193   -2.156576
H        -0.052198   -1.561484   -1.284555
H         1.711425   -1.493134   -1.269671
C         0.803581   -0.888795    1.251703
H         0.788600   -0.278191    2.156577
H         1.711425   -1.493133    1.269673
H        -0.052198   -1.561483    1.284557
H         1.996617    1.557050    0.883830
