11
0 1
C         0.917220   -0.882844    0.440935
C        -0.000000    0.000000    1.256460
C        -0.917220    0.882844    0.440935
H        -1.576622    1.457601    1.084225
H        -1.513124    0.301160   -0.256174
Cl         0.000000    2.073731   -0.538070
Cl        -0.000000   -2.073731   -0.538070
H         1.576622   -1.457601    1.084225
H         1.513124   -0.301160   -0.256174
H         0.621185    0.623356    1.904143
H        -0.621185   -0.623356    1.904143
