13
0 2
C        -1.668887   -1.337392   -0.000001
C        -0.331591   -1.006924    0.000000
N        -2.658669   -0.446781   -0.000001
C        -2.315933    0.840421   -0.000002
C        -1.014139    1.286193   -0.000001
C         0.036289    0.348927   -0.000000
H        -1.966571   -2.379913   -0.000001
H         0.422041   -1.780497    0.000001
H        -3.133065    1.552928   -0.000002
H        -0.801134    2.346905   -0.000001
C         1.367025    0.804105    0.000001
Cl         2.708381   -0.239935    0.000002
H         1.610339    1.854959    0.000000
