7
0 2
C        -0.031622    0.132750   -0.000001
O        -0.262163    1.313976    0.000001
C         1.308924   -0.408557    0.000000
O        -1.059055   -0.752081   -0.000000
H         1.514014   -1.470232   -0.000000
H         2.130367    0.289966    0.000001
H        -0.738451   -1.660054   -0.000000
