14
0 1
C         1.325866    1.451151   -0.007807
C         0.266060    0.436459    0.355893
C        -1.064492    0.696895   -0.323187
H         2.270064    1.228344    0.485268
H         1.000589    2.446684    0.300244
H         1.494212    1.461632   -1.084713
C        -2.189731   -0.222608    0.117862
H        -2.351558   -0.155347    1.195383
H        -1.965655   -1.260730   -0.122598
H        -3.123594    0.045125   -0.376071
H         0.130294    0.401675    1.436187
Cl         0.869008   -1.218100   -0.069553
H        -0.922185    0.633837   -1.404533
H        -1.331521    1.735096   -0.103326
