14
0 1
C        -0.425519    0.753243   -0.000006
O        -0.454539    1.944427   -0.000002
C         0.887811   -0.069539    0.000001
O        -1.469183   -0.051529   -0.000007
Cl         0.918555   -1.086134   -1.453347
Cl         0.918600   -1.086033    1.453417
Cl         2.272263    1.007939   -0.000058
C        -2.764608    0.582966   -0.000006
C        -3.799193   -0.508373   -0.000008
H        -2.832248    1.219543   -0.881761
H        -2.832249    1.219541    0.881749
H        -3.700540   -1.136641   -0.884307
H        -4.795706   -0.066890   -0.000008
H        -3.700540   -1.136644    0.884289
