12
0 1
C        -0.003353   -1.657680   -0.000000
C        -1.198193   -0.962682   -0.000000
C        -1.207990    0.420614   -0.000000
C        -0.000000    1.096449    0.000000
C         1.203130    0.425382    0.000000
C         1.188990   -0.956564    0.000000
H         0.003242   -2.737390   -0.000000
H        -2.139036   -1.494019   -0.000000
H         2.127132    0.984127    0.000000
Cl         2.690483   -1.816853    0.000000
F         0.010121    2.429326    0.000000
Cl        -2.689185    1.298632   -0.000000
