13
0 2
C        -1.673412    1.351121   -0.000005
C        -0.337383    1.027003   -0.000001
C        -2.619839    0.335059   -0.000008
N        -2.293012   -0.958307   -0.000006
C        -1.017937   -1.274308   -0.000003
C         0.034990   -0.329237    0.000000
H        -1.991341    2.384665   -0.000006
H         0.423110    1.794855    0.000001
H        -0.778070   -2.333232   -0.000002
C         1.358105   -0.791994    0.000004
Cl         2.706555    0.249144    0.000008
H         1.597361   -1.843582    0.000005
H        -3.678550    0.564127   -0.000011
