12
0 1
C        -1.744857   -0.820613    0.048853
C        -0.527721   -0.046455    0.395404
C         0.527721    0.046456   -0.395405
Cl        -3.185807    0.253861   -0.047679
H        -1.980014   -1.561477    0.809161
H        -1.649478   -1.311536   -0.915135
C         1.744857    0.820613   -0.048853
H         1.980014    1.561478   -0.809160
Cl         3.185807   -0.253862    0.047679
H         1.649479    1.311536    0.915135
H        -0.535236    0.456820    1.356699
H         0.535236   -0.456819   -1.356699
