11
0 2
C         0.085776   -1.768429   -0.000004
C         0.990424   -0.709604   -0.000003
C         0.517345    0.599447    0.000001
C        -0.844399    0.861172    0.000002
C        -1.749214   -0.188072   -0.000001
C        -1.236966   -1.452154   -0.000003
H         0.444379   -2.788144   -0.000006
Cl         2.676951   -1.055075   -0.000003
H        -1.194471    1.883378    0.000005
Cl         1.606112    1.935859    0.000004
Cl        -3.449398    0.110428    0.000002
