7
0 2
C         0.882165   -0.000000   -0.274141
C        -0.593500    0.000000   -0.025451
Cl         1.748290   -1.442837   -0.086965
Cl         1.748290    1.442837   -0.086965
Cl        -0.909345   -0.000000    1.746580
Cl        -1.344558   -1.438178   -0.733456
Cl        -1.344558    1.438178   -0.733455
