14
0 1
C         1.984477   -1.133771   -0.171015
C         0.663285   -1.185752    0.235950
N         2.643314   -0.000011   -0.373220
C         1.984491    1.133759   -0.171031
C         0.663299    1.185761    0.235933
C        -0.021237    0.000010    0.447146
H         2.539786   -2.049417   -0.340424
H         0.175658   -2.140682    0.382289
H         2.539810    2.049395   -0.340454
H         0.175683    2.140699    0.382259
C        -1.450606    0.000022    0.879159
Cl        -2.558261   -0.000009   -0.536672
H        -1.692978    0.886247    1.457702
H        -1.692981   -0.886177    1.457741
