11
0 2
C         0.767655   -1.201556   -0.000675
C         0.090025   -0.000001   -0.007146
C         0.767649    1.201560   -0.000675
H         0.242420   -2.146260   -0.016529
H         1.848486   -1.228981    0.019530
C        -1.417783   -0.000003    0.001807
H         1.848479    1.228991    0.019530
H         0.242409    2.146260   -0.016529
H        -1.816579   -0.882819   -0.496107
H        -1.816582    0.882773   -0.496175
H        -1.793909    0.000036    1.026417
