16
0 1
C         0.116091    1.197752    0.386558
C        -1.238333    1.204931    0.123636
C        -1.920683   -0.000000   -0.008709
C        -1.238330   -1.204929    0.123646
C         0.116094   -1.197744    0.386568
C         0.805429    0.000005    0.521107
H         0.647582    2.135345    0.485042
H        -1.774277    2.137813    0.021056
C         2.273587    0.000008    0.791969
H         0.647588   -2.135336    0.485059
H         2.579947    0.885637    1.340132
Cl         3.219744   -0.000007   -0.738093
H         2.579947   -0.885610    1.340150
H        -1.774272   -2.137814    0.021074
C        -3.326569   -0.000003   -0.276865
N        -4.452268   -0.000005   -0.490342
