14
0 1
C        -2.210099    0.000002    1.282000
C        -0.847126    0.000001    1.084503
C        -3.043576    0.000000    0.172139
N        -2.594572   -0.000001   -1.073265
C        -1.280232   -0.000001   -1.253912
C        -0.364427    0.000000   -0.215594
H        -2.629892    0.000003    2.278059
H        -0.160895    0.000003    1.920967
H        -0.935534   -0.000002   -2.283254
C         1.095129   -0.000000   -0.525579
Cl         1.901347   -1.460725    0.106936
Cl         1.901348    1.460725    0.106934
H         1.265187   -0.000001   -1.595367
H        -4.120684    0.000000    0.295318
