23
0 1
C        -1.926896    0.393698    0.373208
C        -0.565497    0.780986   -0.168479
C         0.592856   -0.054285    0.349802
H        -0.402877    1.829869    0.101570
H        -0.598393    0.742777   -1.260673
C        -3.025371    1.341503   -0.051586
H        -2.808518    2.343924    0.322403
H        -3.990430    1.027364    0.341232
H        -3.094489    1.386897   -1.138471
Cl        -2.359477   -1.281164   -0.166483
H        -1.888238    0.322542    1.459381
C         1.937481    0.402128   -0.194006
H         0.430050   -1.101617    0.088169
H         0.609469   -0.009253    1.443749
C         3.105844   -0.426520    0.317680
H         2.100463    1.453706    0.065294
H         1.917918    0.359859   -1.287982
C         4.446552    0.032682   -0.233021
H         2.941682   -1.476004    0.057436
H         3.124342   -0.384832    1.410642
H         4.465273   -0.030146   -1.322749
H         5.266278   -0.576683    0.148565
H         4.648765    1.070233    0.040047
