8
0 1
C         0.340233   -0.059612   -0.000000
C         1.067009    1.250743   -0.000000
Cl        -1.428507    0.142320    0.000000
F         0.672322   -0.791592    1.079889
F         0.672322   -0.791592   -1.079889
H         2.136961    1.047108   -0.000000
H         0.801202    1.817657    0.888228
H         0.801201    1.817657   -0.888228
