8
0 2
C        -1.304974   -0.315933   -0.000008
C        -0.211722    0.387678    0.000006
C         1.186601   -0.152509    0.000001
H        -0.302890    1.477814    0.000018
H         1.187644   -1.240506   -0.000016
H         1.732469    0.196409    0.878567
H         1.732474    0.196436   -0.878552
H        -2.369126   -0.145572   -0.000011
