14
0 2
C         1.208835   -0.691771    0.000000
C         1.211244    0.682814    0.000000
C        -0.000000    1.351922    0.000000
C        -1.211244    0.682814    0.000000
C        -1.208835   -0.691771    0.000000
C        -0.000000   -1.429160    0.000000
H         2.148154   -1.229026    0.000000
H         2.131857    1.249506    0.000000
C         0.000000   -2.826577    0.000000
H        -2.131857    1.249506    0.000000
F         0.000000    2.695038    0.000000
H        -2.148154   -1.229026    0.000000
H        -0.925956   -3.382963    0.000000
H         0.925956   -3.382963    0.000000
