9
0 2
C        -1.372803   -0.551381    0.000001
C        -0.551077    0.729269    0.000006
H        -1.153139   -1.154903    0.879474
H        -1.153147   -1.154891   -0.879483
H        -2.437320   -0.318387    0.000007
C         0.939769    0.500326   -0.000001
H        -0.763914    1.355597    0.869074
H        -0.763922    1.355609   -0.869051
O         1.522013   -0.519038   -0.000006
