10
0 1
C         1.479830   -1.154062   -0.000005
C         2.173026    0.040546   -0.000002
N         1.539871    1.208634   -0.000000
N         0.151228   -1.187326    0.000008
C        -0.461270   -0.032085    0.000022
C         0.221735    1.181028    0.000006
H         1.995850   -2.106161    0.000000
H         3.255571    0.060539    0.000001
H        -0.313736    2.121624   -0.000005
Cl        -2.191489   -0.025748   -0.000010
