13
0 2
C         1.147905    1.137321    0.000001
C        -0.226785    1.195690    0.000001
N         1.843197    0.000000    0.000000
C         1.147905   -1.137321   -0.000001
C        -0.226785   -1.195690   -0.000001
C        -0.974384    0.000000   -0.000000
H         1.730866    2.051576    0.000001
H        -0.732317    2.152317    0.000001
H         1.730866   -2.051576   -0.000001
H        -0.732317   -2.152317   -0.000001
C        -2.374526    0.000000   -0.000000
H        -2.929731    0.926891    0.000000
H        -2.929731   -0.926891   -0.000001
