9
0 1
C         0.051255    0.446338   -0.000001
C        -0.965710   -0.391117    0.000000
C        -2.392362    0.046444   -0.000000
H        -0.766633   -1.456921    0.000001
H        -2.479141    1.132457   -0.000001
H        -2.915815   -0.338029    0.877649
H        -2.915815   -0.338031   -0.877649
H        -0.059045    1.521423   -0.000001
Cl         1.704550   -0.066523    0.000000
