14
0 2
C         1.285380   -1.791989    0.000000
C        -0.083385   -1.735817    0.000000
C        -0.745376   -0.510171    0.000000
C        -0.000000    0.670399    0.000000
C         1.373151    0.621271    0.000000
C         2.065179   -0.610682    0.000000
H         1.783684   -2.752126    0.000000
H        -0.672687   -2.641652    0.000000
C         3.459394   -0.655221    0.000000
H         1.930588    1.547325    0.000000
H         4.045993    0.251784    0.000000
H         3.983676   -1.599640    0.000000
Cl        -0.781322    2.210314    0.000000
Cl        -2.465578   -0.488693    0.000000
