12
0 1
C         1.187896    0.003724   -0.000000
C         1.203547   -1.378983   -0.000000
C         0.000000   -2.061552   -0.000000
C        -1.203547   -1.378983    0.000000
C        -1.187896    0.003724    0.000000
C         0.000000    0.711163    0.000000
Cl         2.685714    0.875700   -0.000000
H         0.000000   -3.143010   -0.000000
H        -2.145158   -1.907934    0.000000
H         2.145158   -1.907934   -0.000000
Cl        -2.685714    0.875700    0.000000
H        -0.000000    1.790512    0.000000
