16
0 2
C         1.865134    1.301342   -0.000003
C         0.478346    1.194088    0.000000
C        -0.134926   -0.054876    0.000001
C         0.643613   -1.210100    0.000000
C         2.028069   -1.129452   -0.000003
C         2.564588    0.129037   -0.000005
H         2.350141    2.268087   -0.000006
H        -0.116879    2.096803    0.000001
H         2.639986   -2.021390   -0.000006
C        -1.621230   -0.209993    0.000000
O        -2.124224   -1.308494    0.000009
C        -2.480469    1.027625    0.000000
H        -2.277840    1.639890    0.879810
H        -3.523830    0.726534    0.000005
H        -2.277847    1.639885   -0.879815
H         0.141307   -2.167893    0.000001
