21
0 1
C        -1.614384    0.069334    0.785097
C        -0.232800   -0.562764    0.763257
Cl        -2.455704   -0.169330   -0.776027
H        -1.600925    1.136048    0.986750
H        -2.190416   -0.448391    1.542218
N         0.766110    0.110260    0.150766
C         0.617530    1.395227   -0.513224
O        -0.068230   -1.641208    1.302065
C         2.081490   -0.516164    0.111627
C         1.020450    2.569571    0.363988
H        -0.404475    1.509435   -0.864054
H         1.236512    1.371468   -1.411997
H         0.380646    2.637979    1.244436
H         0.938210    3.505166   -0.190084
H         2.050194    2.470737    0.707808
C         2.235034   -1.464078   -1.065059
H         2.225215   -1.054568    1.045554
H         2.824822    0.280517    0.065430
H         1.512562   -2.275067   -0.988611
H         3.236276   -1.895872   -1.077837
H         2.077490   -0.947755   -2.013162
