8
0 1
C         0.811304    0.000001   -0.590072
C        -0.615778    0.000001    0.001114
H         0.714998   -0.000001   -1.670168
Cl         1.710209   -1.448162   -0.133707
Cl         1.710210    1.448163   -0.133709
Cl        -1.468360    1.436462   -0.594083
Cl        -0.594784    0.000021    1.761662
Cl        -1.468343   -1.436485   -0.594050
