17
0 2
C         2.326086   -0.787801   -0.000002
C         2.391772    0.618938   -0.000002
C         1.249170    1.362174   -0.000001
C         1.117681   -1.417617   -0.000002
C        -0.086876   -0.678574   -0.000000
C        -0.017397    0.737822    0.000000
H         3.240269   -1.366094   -0.000003
H         3.356452    1.108831   -0.000003
H         1.296979    2.443779   -0.000000
H         1.063428   -2.499083   -0.000002
C        -1.227606    1.485132    0.000002
C        -2.378531    0.792160    0.000002
C        -2.508868   -0.591095    0.000002
C        -1.349403   -1.317659    0.000001
H        -3.475905   -1.075431    0.000003
H        -1.385553   -2.400403    0.000000
H        -1.191838    2.567522    0.000002
