26
0 1
C         2.504779   -0.334720    0.396869
C         1.178439   -0.811226   -0.160417
C        -0.035088   -0.030431    0.314651
H         1.069334   -1.860787    0.132925
H         1.231281   -0.797624   -1.252417
C         3.662856   -1.229419    0.017649
H         3.494646   -2.232890    0.413245
H         4.600685   -0.851848    0.420449
H         3.756542   -1.297740   -1.066194
Cl         2.854233    1.347974   -0.177609
H         2.440052   -0.238999    1.479910
C        -1.340728   -0.574739   -0.243469
H         0.074294    1.017896    0.030290
H        -0.071673   -0.050358    1.408833
C        -2.562831    0.198410    0.225878
H        -1.448903   -1.627434    0.038328
H        -1.300413   -0.556728   -1.337395
C        -3.871293   -0.338884   -0.333470
H        -2.454599    1.250839   -0.055684
H        -2.604207    0.181406    1.320027
C        -5.086518    0.441224    0.142487
H        -3.977505   -1.390742   -0.052135
H        -3.828818   -0.320559   -1.426404
H        -5.170000    0.411970    1.230630
H        -6.010352    0.036929   -0.272352
H        -5.020020    1.489824   -0.153775
