9
0 1
C        -0.597171    0.377410   -0.000000
C         0.452376   -0.412918    0.000000
F        -1.852604   -0.106209    0.000000
H        -0.578938    1.459818   -0.000001
C         1.857422    0.090262   -0.000000
H         0.284231   -1.483984    0.000001
H         1.891226    1.179656   -0.000001
H         2.400574   -0.264067   -0.878029
H         2.400574   -0.264066    0.878029
