7
0 2
C        -1.490638   -0.000001   -0.020199
C        -0.017331    0.000000   -0.007753
H        -2.012592    0.941438    0.032733
H        -2.012591   -0.941440    0.032733
F         0.478278   -0.000006    1.248009
F         0.487138    1.082926   -0.618318
F         0.487139   -1.082920   -0.618329
