17
0 2
C         0.536404    1.362157    0.000000
C         0.049999    0.784662    1.280459
C         0.049999    0.784662   -1.280459
C         0.049999   -0.746017    1.257404
H        -0.983895    1.121678    1.464635
H         0.638139    1.155924    2.121415
C        -0.624122   -1.281394   -0.000000
H        -0.445416   -1.131592    2.150568
H         1.083141   -1.103936    1.287851
C         0.049999   -0.746017   -1.257404
H        -1.678933   -0.985396   -0.000000
H        -0.606882   -2.373090   -0.000000
H         0.638139    1.155924   -2.121415
H        -0.983895    1.121678   -1.464635
H         1.083141   -1.103936   -1.287851
H        -0.445416   -1.131592   -2.150568
H         1.028208    2.326025    0.000000
