13
0 2
C         0.000001    0.000007   -0.157561
C         1.393455    0.487946    0.015484
H         1.534367    1.474917   -0.429023
H         2.119288   -0.195584   -0.428929
C        -1.119303    0.962784    0.015554
H        -0.890324    1.933148   -0.428869
H        -1.334122    1.147526    1.079920
H        -2.044514    0.591302   -0.428903
H         1.660880    0.581642    1.079841
C        -0.274149   -1.450732    0.015515
H         0.510158   -2.066248   -0.428955
H        -1.229005   -1.737586   -0.428916
H        -0.326749   -1.729147    1.079878
