15
0 1
C         0.445130    0.260349    0.063874
C        -0.483321    1.288798   -0.017496
C         1.904769    0.588667    0.161149
C         0.003933   -1.053311    0.087269
C        -1.837306    1.009263   -0.064439
C        -2.275054   -0.304745   -0.040371
C        -1.351397   -1.333095    0.031669
H         0.726683   -1.855327    0.138218
H        -3.333151   -0.525684   -0.083468
H        -1.686639   -2.361774    0.044967
H        -0.145335    2.317998   -0.049792
H        -2.552180    1.818793   -0.129051
F         2.689818   -0.488785   -0.216834
H         2.182150    0.840656    1.187702
H         2.159583    1.428851   -0.486998
