12
0 1
C         0.000000   -0.000000    0.921526
C         0.000000    1.207910    0.258406
F         0.000000   -0.000000    2.266191
C        -0.000000   -1.207910    0.258406
C         0.000000    1.198838   -1.126518
C        -0.000000    0.000000   -1.820808
C        -0.000000   -1.198838   -1.126518
H         0.000000   -2.128708    0.824413
H        -0.000000    0.000000   -2.902037
H         0.000000   -2.137130   -1.664732
H         0.000000    2.128708    0.824413
H         0.000000    2.137130   -1.664732
