8
0 1
C         1.152424    0.239903    0.000000
C        -0.358910    0.191123    0.000000
H         1.487313    0.761999    0.896220
H         1.487313    0.761999   -0.896220
F         1.649415   -1.035566    0.000000
F        -0.836313   -0.432707   -1.078018
F        -0.836313    1.444295    0.000000
F        -0.836313   -0.432707    1.078018
