9
0 1
F        -0.122687    1.280611    1.072314
C         0.000000    0.549767    0.000000
N        -1.225124   -0.362335   -0.168781
N         1.225123   -0.362336    0.168781
O         2.151936   -0.162351   -0.560310
O         1.112078   -1.167456    1.054623
O        -1.112078   -1.167454   -1.054625
O        -2.151936   -0.162352    0.560310
F         0.122687    1.280612   -1.072313
