11
0 1
C        -0.790785    0.511186    0.299562
C         0.591279    0.650190   -0.284860
F        -1.394369   -0.652464   -0.171287
C         1.525036   -0.480122    0.118072
H         1.128570   -1.442509   -0.203423
H         1.652863   -0.515791    1.201711
H         2.510358   -0.354470   -0.330240
H        -1.434306    1.345490    0.015424
H        -0.759309    0.437037    1.389372
H         0.993095    1.612622    0.044719
H         0.504870    0.702270   -1.372619
