12
0 1
C        -1.197199    0.691203   -0.000000
C        -0.000000    1.382408    0.000000
C         1.197199    0.691203    0.000000
C        -1.197199   -0.691203   -0.000000
C         0.000000   -1.382408   -0.000000
C         1.197199   -0.691202    0.000000
F        -2.345040    1.353905   -0.000000
F        -0.000000    2.707821    0.000000
F         2.345040    1.353906    0.000000
F         2.345040   -1.353906    0.000000
F        -2.345040   -1.353905   -0.000000
F         0.000001   -2.707821   -0.000000
