15
0 2
C        -0.610921   -0.347653    0.343028
C         0.780046    0.113169    0.113688
N         1.122766    1.299616   -0.618653
O         2.209167    1.320429   -1.140491
O         0.271663    2.160993   -0.644660
N         1.858748   -0.797589    0.432040
N        -1.220932   -0.946828   -0.942935
N        -1.544496    0.808360    0.792405
O        -0.793483   -0.473748   -1.963411
O        -2.040645   -1.798197   -0.788055
O        -1.228553    1.279937    1.847881
O        -2.474597    1.068962    0.089611
F        -0.655301   -1.258299    1.298125
O         1.752268   -1.895042   -0.064554
O         2.725474   -0.389999    1.155751
