10
0 2
C         1.169275    1.164612   -0.183199
S         0.065541   -0.147609    0.026804
H         0.949194    2.131517    0.243678
H         2.148149    0.918329   -0.565404
C        -1.526124    0.591968   -0.190283
H        -2.246928   -0.209606   -0.038572
H        -1.608357    0.986878   -1.199553
H        -1.672104    1.367654    0.557448
O         0.158173   -0.589756    1.391400
O         0.282137   -1.081807   -1.039597
