7
0 2
C        -0.390351   -0.014200   -0.000001
C        -0.985372    1.322799   -0.000015
F        -0.747685   -0.723677    1.083715
Cl         1.408018    0.088741    0.000004
F        -0.747677   -0.723696   -1.083708
H        -1.111863    1.833090    0.941009
H        -1.111848    1.833077   -0.941048
