8
0 1
C         0.826883    0.430397    0.000000
O        -0.470353    0.724436   -0.000001
C        -1.360705   -0.395877   -0.000001
H        -1.199805   -1.006759   -0.886301
H        -2.361859    0.022634   -0.000003
H        -1.199808   -1.006756    0.886303
O         1.289250   -0.671160    0.000002
H         1.413227    1.357558   -0.000001
