17
0 1
C        -0.935967    0.188879   -0.000002
O        -1.612589   -0.977530    0.000005
O        -1.506417    1.243943   -0.000008
H        -2.554687   -0.754826    0.000004
C         0.568664   -0.012714   -0.000000
C         0.959643   -0.801896   -1.253870
H         0.487677   -1.782530   -1.268871
H         2.041362   -0.939057   -1.272605
H         0.673072   -0.267494   -2.160600
C         1.251431    1.349023   -0.000007
H         0.974223    1.929218   -0.878771
H         2.333617    1.214718   -0.000005
H         0.974221    1.929228    0.878751
C         0.959640   -0.801881    1.253880
H         0.487675   -1.782516    1.268891
H         0.673068   -0.267469    2.160603
H         2.041359   -0.939042    1.272619
