31
0 1
C        -0.000000    0.000000   -2.335526
O         0.428213   -1.082170   -1.569508
O        -0.428213    1.082170   -1.569508
H        -0.854847   -0.276409   -2.960742
H         0.854847    0.276409   -2.960742
C        -0.611355   -1.726267   -0.849846
C         0.611355    1.726267   -0.849846
C         0.000000    2.749287    0.077422
H         1.297511    2.204135   -1.559917
H         1.179724    0.985861   -0.279070
C        -0.872898    2.134028    1.161480
H        -0.587585    3.456549   -0.514303
H         0.811795    3.320762    0.537155
C        -1.470812    3.174023    2.095123
H        -0.275721    1.420619    1.737697
H        -1.669972    1.557793    0.688832
H        -0.690410    3.747847    2.599155
H        -2.091285    2.711689    2.863386
H        -2.095483    3.880653    1.545370
C         0.000000   -2.749287    0.077422
H        -1.297511   -2.204135   -1.559917
H        -1.179724   -0.985861   -0.279070
C         0.872898   -2.134028    1.161480
H         0.587585   -3.456549   -0.514303
H        -0.811795   -3.320762    0.537155
C         1.470812   -3.174023    2.095123
H         0.275721   -1.420619    1.737697
H         1.669972   -1.557793    0.688832
H         0.690410   -3.747847    2.599155
H         2.091285   -2.711689    2.863386
H         2.095483   -3.880653    1.545370
