12
0 1
N        -0.341896   -0.019414   -0.000010
C         0.856970   -0.643745   -0.000016
O         1.935965   -0.097526    0.000010
C        -1.579954   -0.754752    0.000004
H        -1.372703   -1.823364   -0.000010
H        -2.175970   -0.518590   -0.885266
H        -2.175940   -0.518608    0.885299
C        -0.415565    1.422109    0.000002
H         0.595892    1.817311   -0.000018
H        -0.944515    1.780093    0.886473
H        -0.944556    1.780104   -0.886440
H         0.754645   -1.742517    0.000005
