10
0 1
N        -0.708653    1.184487    0.000004
C         0.618003    1.175413   -0.000003
C         1.344364    0.000000   -0.000006
N        -0.708653   -1.184487    0.000003
C        -1.303542   -0.000000    0.000006
C         0.618003   -1.175413   -0.000003
H         1.111638   -2.141086   -0.000006
H         1.111638    2.141086   -0.000004
H         2.424787    0.000000   -0.000011
H        -2.387887   -0.000000    0.000012
