7
0 1
C        -0.857011   -0.000002    0.000000
C         0.497530   -0.640742   -0.000000
C         0.497527    0.640743    0.000000
H        -1.452412   -0.000001    0.910496
H        -1.452412   -0.000001   -0.910496
H         1.038277   -1.568806   -0.000001
H         1.038270    1.568810    0.000001
