13
0 1
C        -2.352954   -0.176854   -0.148720
C        -1.166218   -0.175949    0.431470
C         0.000000    0.662570    0.000000
C         1.166218   -0.175949   -0.431470
C         2.352954   -0.176854    0.148720
H        -0.312939    1.310541   -0.823184
H         0.312939    1.310541    0.823184
H        -3.156142   -0.809987    0.203741
H        -2.566637    0.460307   -0.999089
H        -0.985311   -0.831753    1.278098
H         0.985311   -0.831753   -1.278098
H         2.566637    0.460307    0.999089
H         3.156142   -0.809987   -0.203741
