9
0 1
C        -1.226039    0.161472    0.000004
C         0.134385   -0.452553    0.000004
C         1.271596    0.220172   -0.000008
H         2.228694   -0.283912   -0.000007
H         1.287183    1.303954   -0.000019
H        -1.796699   -0.153066    0.876687
H        -1.796711   -0.153092   -0.876662
H        -1.170796    1.249890   -0.000013
H         0.168682   -1.538320    0.000015
