9
0 2
N         0.687261    0.807846   -0.000006
C         1.095177   -0.504943    0.000001
C        -0.048312   -1.235948    0.000007
C        -1.178627   -0.403286   -0.000000
C        -0.675026    0.874740    0.000002
H         1.301250    1.601909   -0.000014
H         2.133884   -0.781249    0.000002
H        -2.217917   -0.680770    0.000000
H        -1.187313    1.821806    0.000002
