18
0 2
C        -1.086072    1.318089    0.001390
C         0.287682    1.247259   -0.085394
C        -1.908778    0.085798    0.191240
C        -1.180585   -1.147475   -0.333985
H        -2.876654    0.193861   -0.303059
H        -2.132904   -0.047965    1.258122
C         0.245089   -1.222953    0.202867
H        -1.141891   -1.093415   -1.424852
H        -1.730664   -2.054250   -0.078015
C         0.991897    0.062590    0.015160
H         0.786911   -2.040463   -0.280743
H         0.225202   -1.474582    1.272166
H         0.847595    2.166688   -0.220838
H        -1.580976    2.278993   -0.044522
C         2.479221    0.010044   -0.012323
H         2.839239   -0.609925   -0.839781
H         2.875903   -0.441175    0.903464
H         2.917513    1.002122   -0.115670
