15
0 2
C        -0.544823   -0.000003    0.000000
C         0.190125    1.217988   -0.000000
C         1.562896    1.203476   -0.000001
C         2.264054    0.000003   -0.000000
C         1.562901   -1.203473   -0.000000
C         0.190130   -1.217990    0.000000
H        -0.352293   -2.153107    0.000000
H         2.104182   -2.140559    0.000000
H        -0.352302    2.153102   -0.000001
H         2.104173    2.140565   -0.000001
C        -1.908713   -0.000006   -0.000000
C        -3.199556    0.000002    0.000001
H         3.345174    0.000006   -0.000001
H        -3.775509    0.000005    0.923344
H        -3.775511    0.000005   -0.923341
