18
0 2
C         0.193578   -0.441184   -0.000001
C         1.546101   -0.198968   -0.000001
C         2.064792    1.088100   -0.000001
C         1.178370    2.160188   -0.000001
C        -0.180065    1.953750   -0.000001
C        -0.707610    0.644467   -0.000001
C        -2.094275    0.445216   -0.000001
O        -2.591797   -0.801360   -0.000003
H         1.568481    3.169313   -0.000001
H        -0.858185    2.797378   -0.000001
H         3.133284    1.242895   -0.000000
H        -0.181627   -1.452942   -0.000001
H        -2.797692    1.268587   -0.000001
C        -4.002658   -0.901539    0.000007
H        -4.423499   -0.432337    0.892396
H        -4.244004   -1.960573    0.000002
H        -4.423513   -0.432325   -0.892369
Cl         2.645396   -1.546429   -0.000001
