18
0 1
C         1.102310   -1.201499    0.000001
C        -0.278050   -1.154960    0.000001
C         1.829366   -0.017066    0.000000
C         1.170972    1.210493    0.000000
C        -0.206003    1.244680    0.000000
C        -0.942556    0.065085    0.000001
H        -0.833338   -2.081678    0.000001
H         1.621636   -2.149185    0.000001
H         1.745994    2.125604   -0.000000
H        -0.739963    2.184202    0.000000
C        -2.438736    0.164368    0.000000
O        -2.972655    1.246244   -0.000002
C        -3.248617   -1.103414   -0.000000
H        -3.021529   -1.707188    0.879848
H        -3.021527   -1.707189   -0.879848
H        -4.303055   -0.844268   -0.000002
C         3.260430   -0.060451   -0.000000
N         4.405474   -0.096239   -0.000001
