16
0 2
C         2.504960   -0.396876    0.059996
C         1.293376    0.521161   -0.012044
H         2.556551   -1.042211   -0.818489
H         2.455211   -1.038904    0.940418
H         3.433417    0.172180    0.110452
C        -0.000000   -0.200195   -0.099149
H         1.401187    1.194431   -0.876789
H         1.280625    1.189392    0.857905
C        -1.293374    0.521161   -0.012024
H        -0.000002   -1.240044   -0.407616
C        -2.504961   -0.396875    0.059986
H        -1.401182    1.194457   -0.876749
H        -1.280624    1.189366    0.857945
H        -2.556554   -1.042182   -0.818519
H        -3.433416    0.172181    0.110462
H        -2.455213   -1.038932    0.940388
