20
0 1
C         0.000001    1.512831    0.208580
C        -0.000000    0.044825   -0.201768
H         0.876545    2.037302   -0.169730
H         0.000003    1.604872    1.298127
H        -0.876546    2.037301   -0.169726
C        -1.252334   -0.681473    0.289754
C        -2.561583   -0.160678   -0.284440
H        -1.284022   -0.628278    1.383139
H        -1.154664   -1.741812    0.041659
H        -2.769874    0.861362    0.031542
H        -3.401122   -0.777626    0.037444
H        -2.541850   -0.172768   -1.376314
C         1.252334   -0.681474    0.289753
H        -0.000001   -0.001347   -1.298241
C         2.561583   -0.160678   -0.284440
H         1.154663   -1.741813    0.041656
H         1.284021   -0.628281    1.383138
H         2.541850   -0.172766   -1.376313
H         3.401121   -0.777626    0.037443
H         2.769873    0.861361    0.031544
