16
0 1
C        -1.647582   -0.809478    0.114525
C        -0.518430    0.184339    0.042212
O        -0.660821    1.376697    0.053213
O         0.667782   -0.423526    0.001717
N        -2.896604   -0.174567   -0.240629
H        -1.617130   -1.216942    1.134899
H        -1.417213   -1.638260   -0.557171
H        -2.872938    0.802627    0.021702
H        -3.686165   -0.619585    0.202318
C         1.822674    0.431351   -0.004560
C         3.041607   -0.450720   -0.050571
H         1.800464    1.054247    0.889875
H         1.761409    1.091989   -0.869160
H         3.080148   -1.106809    0.818536
H         3.941695    0.164209   -0.057139
H         3.040660   -1.067822   -0.948529
