21
0 2
C         0.138788   -1.013679    0.027466
C        -1.228832   -1.139268    0.070445
C        -2.018136   -0.004423    0.011615
C        -1.467760    1.261516   -0.078696
C        -0.101062    1.387842   -0.113944
C         0.747869    0.258086   -0.069639
H         0.748495   -1.899564    0.061446
H        -2.114822    2.123936   -0.117947
H         0.322317    2.377842   -0.174927
C         2.151727    0.481729   -0.068434
C         2.780375    1.826111   -0.032294
H         3.852110    1.749541   -0.178118
H         2.611461    2.316815    0.929803
H         2.359800    2.465514   -0.808341
N         3.077275   -0.624106   -0.005709
O         4.114580   -0.435311    0.604655
O         2.793517   -1.668038   -0.566604
N        -3.477546   -0.144789    0.050324
O        -3.931151   -1.265789    0.131136
O        -4.139291    0.870297   -0.000543
H        -1.696517   -2.108569    0.147508
