14
0 2
C         1.706706   -0.853860   -0.000000
C         0.556643   -0.098338   -0.000000
C        -0.688882   -0.711445   -0.000000
H         2.684906   -0.394744   -0.000000
H         1.660970   -1.934552   -0.000000
C         0.665702    1.405503    0.000000
H         1.708344    1.716873   -0.000000
H         0.186283    1.839255    0.878740
H         0.186282    1.839255   -0.878740
C        -2.007648   -0.026012    0.000000
H        -0.705465   -1.796030   -0.000000
H        -2.599772   -0.311694    0.874855
H        -2.599774   -0.311697   -0.874853
H        -1.916900    1.058242   -0.000001
