20
0 1
C        -3.194976    0.207364   -0.000000
C        -1.874969   -0.547357   -0.000000
H        -3.281003    0.847139   -0.880461
H        -3.281003    0.847139    0.880462
H        -4.046685   -0.473615   -0.000000
C        -0.663005    0.371915    0.000000
H        -1.827811   -1.203615   -0.873969
H        -1.827811   -1.203615    0.873968
C         0.663005   -0.371915   -0.000000
H        -0.709399    1.029487    0.874498
H        -0.709399    1.029487   -0.874498
C         1.874969    0.547357    0.000000
H         0.709399   -1.029487   -0.874498
H         0.709399   -1.029487    0.874498
C         3.194976   -0.207364   -0.000000
H         1.827811    1.203614    0.873969
H         1.827811    1.203615   -0.873968
H         3.281003   -0.847140    0.880461
H         4.046685    0.473615    0.000000
H         3.281003   -0.847139   -0.880462
