17
0 1
S         0.246014    1.491966   -0.046478
C         1.840519    0.645082   -0.208987
C         1.698672   -0.745919    0.374078
H         2.584075    1.231622    0.330445
H         2.124801    0.590778   -1.258115
S         0.188617   -1.451442   -0.307247
H         1.649812   -0.712815    1.462105
H         2.526855   -1.391628    0.083553
C        -0.850791    0.007568    0.038379
C        -1.474448   -0.075559    1.426464
H        -0.713693   -0.199303    2.194434
H        -2.163328   -0.919677    1.478797
H        -2.027836    0.839088    1.646393
C        -1.931953    0.095425   -1.030568
H        -1.494336    0.181233   -2.022084
H        -2.565646    0.964886   -0.852376
H        -2.566791   -0.792155   -0.999740
