14
0 2
C        -1.669940   -0.827981    0.000000
C        -1.328770    0.520696    0.000000
C        -0.000000    0.917806    0.000000
C         0.990682   -0.035069    0.000000
C         0.701479   -1.425904    0.000000
C        -0.675721   -1.769876    0.000000
H         0.255427    1.966738    0.000000
C         1.679221   -2.414969    0.000000
H         2.729690   -2.174519    0.000000
H         1.390959   -3.455734    0.000000
H        -0.935178   -2.820225    0.000000
H        -2.710346   -1.118794    0.000000
Cl         2.635542    0.503347    0.000000
Cl        -2.571558    1.721024    0.000000
