23
0 1
C         1.164419   -1.182576   -0.211504
O         1.944213   -1.690733   -0.965430
O         1.304878    0.041799    0.299281
C         2.455840    0.788952   -0.125694
C        -0.081664   -1.853911    0.315127
C        -1.238833   -0.901493    0.474421
O        -1.796817   -0.665423    1.508028
O        -1.568163   -0.362932   -0.703618
C        -2.598114    0.640092   -0.697386
C         2.374378    2.148087    0.516049
H         2.448848    0.845783   -1.214033
H         3.352494    0.245744    0.172763
H         1.468744    2.669206    0.206932
H         3.234874    2.748151    0.220003
H         2.369646    2.065203    1.602336
C        -2.026479    1.994738   -0.354744
H        -3.370894    0.344474    0.009554
H        -3.004453    0.619886   -1.706174
H        -1.617008    1.995408    0.654060
H        -2.810842    2.750575   -0.407614
H        -1.238202    2.267859   -1.056070
H         0.138736   -2.284677    1.290450
H        -0.342108   -2.652634   -0.375909
