9
0 1
C         1.513412   -0.312574    0.000001
C         0.211611   -0.956410    0.000008
C        -0.977068    0.011845    0.000000
H         0.109586   -1.595808    0.876671
H         0.109584   -1.595826   -0.876641
O        -2.090546   -0.406171    0.000001
O        -0.710744    1.318629   -0.000006
H         0.239191    1.504159   -0.000009
N         2.494890    0.275807   -0.000005
