16
0 1
C         0.326274    1.087255   -0.000015
C         1.684755    1.365213   -0.000001
C         2.614608    0.343231    0.000017
C         2.174606   -0.972307    0.000021
C         0.824790   -1.258191    0.000010
C        -0.115171   -0.228950   -0.000007
H        -0.377314    1.906056   -0.000033
H         2.012580    2.396575   -0.000006
H         3.672783    0.565879    0.000027
H         2.890174   -1.784000    0.000035
H         0.489162   -2.287532    0.000016
S        -1.807922   -0.711771   -0.000028
C        -2.688602    0.851412    0.000025
H        -3.745648    0.593864    0.000018
H        -2.471276    1.435787   -0.892143
H        -2.471274    1.435721    0.892236
