17
0 1
C         0.499968    0.187146    0.000003
O        -0.691820   -0.424915    0.000000
C        -1.845471    0.428273   -0.000001
O         0.627208    1.380849    0.000005
C         1.625361   -0.811532    0.000005
C        -3.065361   -0.454389    0.000000
H        -1.805809    1.071429   -0.879390
H        -1.805809    1.071434    0.879384
H        -3.083965   -1.091533   -0.883790
H        -3.966179    0.159633   -0.000003
H        -3.083967   -1.091527    0.883795
C         2.994726   -0.161300   -0.000010
H         1.487808   -1.457782   -0.869601
H         1.487819   -1.457764    0.869626
H         3.127650    0.469931   -0.877231
H         3.776349   -0.920426   -0.000007
H         3.127660    0.469950    0.877195
