16
0 1
C         0.659770    1.296201    0.057446
C        -0.659770    1.296201   -0.057445
C         1.486445    0.045318    0.110307
C         0.691025   -1.182333   -0.319796
H         1.869228   -0.092409    1.127838
H         2.369605    0.164303   -0.522238
C        -0.691025   -1.182333    0.319795
H         1.234968   -2.093107   -0.064157
H         0.579953   -1.175364   -1.408121
C        -1.486445    0.045318   -0.110307
H        -0.579953   -1.175365    1.408121
H        -1.234968   -2.093107    0.064156
H        -1.869229   -0.092408   -1.127838
H        -2.369604    0.164303    0.522239
H         1.188352    2.241456    0.114326
H        -1.188352    2.241456   -0.114325
