17
0 2
N         1.175721   -0.119991   -0.000027
C         1.485154    1.295078    0.000015
H         2.078179    1.541454    0.885105
H         0.564514    1.866340   -0.000035
H         2.078295    1.541476   -0.884988
C         2.322131   -0.995552    0.000013
H         2.939854   -0.817399   -0.884384
H         2.004140   -2.034697   -0.000067
H         2.939730   -0.817496    0.884518
C        -1.304278    0.070027   -0.000026
O        -1.413416    1.302997   -0.000000
C        -2.558833   -0.775532    0.000017
H        -2.360054   -1.846431    0.000023
H        -3.154792   -0.525012   -0.878010
H        -3.154748   -0.524994    0.878070
C        -0.069642   -0.636024   -0.000023
H        -0.105033   -1.715262   -0.000024
