12
0 2
C        -0.108926    1.011530    0.000014
C         1.298095    0.509016   -0.000006
C         1.441551   -1.003110    0.000008
C        -1.218128    0.209248   -0.000005
C        -2.202292   -0.502215   -0.000011
H         0.970329   -1.442775    0.878976
H         2.493366   -1.288114   -0.000009
H         0.970295   -1.442796   -0.878930
H        -3.064893   -1.121971   -0.000024
H        -0.262376    2.084170    0.000029
H         1.815753    0.932348    0.868615
H         1.815719    0.932325   -0.868659
