9
0 2
C        -1.515323   -0.517757   -0.000001
C        -0.714401    0.594755   -0.000003
H        -1.091118   -1.511192    0.000002
H        -2.590937   -0.425815   -0.000004
C         0.663100    0.587737    0.000000
H        -1.172234    1.576729   -0.000006
O         1.339778   -0.587248    0.000003
H         1.249371    1.496684   -0.000002
H         2.286439   -0.426837    0.000012
