23
0 2
C         2.121834   -0.344891   -0.000003
C         1.593834    0.969102    0.000001
C         0.239663    1.185802    0.000002
C        -0.653661    0.113704   -0.000001
C        -0.156485   -1.192184   -0.000004
C         1.195635   -1.416263   -0.000004
H         1.574842   -2.430274   -0.000006
H        -0.847412   -2.022205   -0.000005
H         2.267952    1.814136    0.000005
H        -0.162724    2.189204    0.000005
C         3.499248   -0.600604   -0.000003
C         4.550512    0.450341    0.000000
H         3.811826   -1.637341    0.000010
H         4.472873    1.100447   -0.876779
H         5.546052    0.011858   -0.000105
H         4.473003    1.100308    0.876896
C        -2.100429    0.411008    0.000001
O        -2.569943    1.520051    0.000004
O        -2.858341   -0.696342   -0.000000
C        -4.266543   -0.477919    0.000002
H        -4.566343    0.080239    0.885314
H        -4.719104   -1.464865    0.000000
H        -4.566345    0.080243   -0.885307
