19
0 1
C        -0.143254    1.415980   -0.033066
C         1.213963    1.238384    0.179561
C         1.764825   -0.013897   -0.006689
C         0.979582   -1.083350   -0.401827
C        -0.370731   -0.887139   -0.617412
C        -0.947815    0.363441   -0.437485
C        -2.419190    0.563448   -0.701410
O        -3.228223   -0.468186   -0.190468
H         1.427484   -2.057047   -0.539954
H        -0.994412   -1.718158   -0.919613
H        -0.579425    2.394885    0.124051
H        -2.605806    0.575512   -1.776481
H        -2.736044    1.533575   -0.298258
C        -3.306220   -0.476471    1.215120
H        -2.329474   -0.651100    1.676479
H        -3.980793   -1.282411    1.494881
H        -3.706552    0.472311    1.591194
Cl         3.462657   -0.253293    0.264431
H         1.838666    2.061526    0.495358
