25
0 2
C         3.611295    0.344724    0.000003
O         4.414075   -0.517801    0.000011
C         2.142898    0.241440    0.000001
C         1.371356    1.390031   -0.000013
C        -0.010419    1.302452   -0.000015
C        -0.651407    0.070128   -0.000002
C         0.143850   -1.079768    0.000013
C         1.517219   -1.004288    0.000014
H         1.861146    2.354711   -0.000023
H        -0.586180    2.215069   -0.000026
H         2.123060   -1.900453    0.000025
C        -2.170831   -0.067647   -0.000003
C        -2.877422    1.286138   -0.000021
H        -2.628622    1.873518    0.884367
H        -3.956498    1.131633   -0.000021
H        -2.628619    1.873495   -0.884424
C        -2.607323   -0.838466    1.252380
H        -2.305896   -0.311519    2.158367
H        -2.173555   -1.837030    1.285686
H        -3.692969   -0.945440    1.266225
C        -2.607319   -0.838498   -1.252367
H        -2.305889   -0.311575   -2.158366
H        -3.692964   -0.945473   -1.266213
H        -2.173550   -1.837063   -1.285646
H        -0.323446   -2.054933    0.000023
