20
0 1
C        -1.608531    0.975449   -0.000006
C        -0.432292   -0.000289   -0.000001
H        -2.560438    0.441379   -0.000006
H        -1.584687    1.617874   -0.882380
H        -1.584690    1.617881    0.882362
C         0.866746    0.822649   -0.000002
C         2.169779    0.036252    0.000003
H         0.849531    1.480958    0.873724
H         0.849533    1.480952   -0.873732
H         2.261584   -0.599276    0.881010
H         3.022654    0.715699    0.000002
H         2.261587   -0.599282   -0.880999
C        -0.517809   -0.878121   -1.248005
H        -0.434303   -0.277415   -2.156082
H        -1.473922   -1.403409   -1.282490
H         0.270455   -1.630779   -1.268678
C        -0.517813   -0.878111    1.248010
H        -0.434310   -0.277398    2.156083
H         0.270451   -1.630769    1.268692
H        -1.473926   -1.403399    1.282496
