27
0 1
C         2.498483   -1.649973   -0.634330
C         1.301682   -0.966888   -0.619136
C         3.657859   -1.070003   -0.138503
C         3.591222    0.210878    0.372909
C         2.392719    0.906396    0.402214
C         1.223528    0.327959   -0.092916
H         0.414150   -1.429901   -1.025336
H         2.528653   -2.648637   -1.050655
H         4.594693   -1.609249   -0.156509
H         4.481785    0.684769    0.765224
H         2.375433    1.900835    0.820983
N         0.019281    1.027150   -0.115261
C        -1.216607    0.340557   -0.020979
C         0.014415    2.430769    0.236119
C        -1.411255   -0.669485    0.914297
H        -0.964317    2.847694    0.018403
H         0.756606    2.973878   -0.349080
H         0.222520    2.597178    1.300447
C        -2.268127    0.698166   -0.855766
C        -3.493251    0.063845   -0.752239
C        -3.680132   -0.947613    0.174746
C        -2.632117   -1.313026    1.003595
H        -0.596205   -0.951585    1.566581
H        -2.113283    1.470680   -1.597439
H        -4.301750    0.352508   -1.410874
H        -4.635315   -1.449339    0.249607
H        -2.768439   -2.098378    1.735422
