17
0 1
C         1.807156    1.268326   -0.000006
C         0.425665    1.182080   -0.000004
C         2.571545    0.114568   -0.000004
C         1.953577   -1.127221   -0.000000
C         0.575835   -1.212594    0.000001
C        -0.200962   -0.058550   -0.000000
H        -0.160581    2.090161   -0.000005
H         2.287125    2.237706   -0.000008
H         3.651514    0.181800   -0.000005
H         2.550966   -2.029116    0.000002
H         0.072290   -2.169110    0.000005
C        -1.688438   -0.203496    0.000004
O        -2.199500   -1.298265    0.000001
C        -2.538053    1.040754    0.000006
H        -2.329643    1.651448   -0.879535
H        -2.329639    1.651450    0.879545
H        -3.583983    0.748578    0.000008
