7
0 1
O        -0.756164    0.382736    0.000000
C         0.658358    0.483739    0.000000
C        -0.000000   -0.816969    0.000000
H         1.095516    0.861943    0.917816
H         1.095516    0.861943   -0.917816
H        -0.045933   -1.393194   -0.917816
H        -0.045933   -1.393194    0.917816
