8
0 2
C        -1.186601   -0.152509   -0.000000
C         0.211722    0.387678    0.000003
C         1.304974   -0.315933   -0.000003
H         2.369126   -0.145572   -0.000004
H        -1.732472    0.196427   -0.878557
H        -1.732471    0.196417    0.878561
H        -1.187644   -1.240506   -0.000006
H         0.302890    1.477814    0.000006
