7
0 2
C        -1.132806   -0.154109    0.000001
N         0.000000    0.506387   -0.000000
H        -1.166996   -1.245832    0.000015
H        -2.063256    0.398131    0.000023
C         1.132806   -0.154109   -0.000004
H         2.063256    0.398131   -0.000006
H         1.166996   -1.245832   -0.000010
