15
0 1
C         0.955178   -0.334276    0.356033
C        -0.001042    0.696128   -0.225810
C        -1.431113    0.517811    0.228457
O        -1.905171   -0.728966   -0.258368
H        -2.048476    1.337621   -0.155298
H        -1.478788    0.544589    1.324256
H        -2.800868   -0.872432    0.056232
H         0.023276    0.647803   -1.318154
H         0.324704    1.702978    0.052606
C         2.382673   -0.150430   -0.133671
H         0.598283   -1.332621    0.099550
H         0.929799   -0.268376    1.448208
H         2.438910   -0.244801   -1.219838
H         3.052137   -0.894902    0.298270
H         2.768216    0.836473    0.131059
