17
0 2
C         0.200414   -0.270961   -0.238396
C         0.685935    1.005008   -0.452950
C         1.034363   -1.301071    0.147533
C         2.035931    1.245256   -0.269071
C         2.887244    0.223441    0.119268
C         2.384036   -1.049520    0.325003
H         0.015824    1.798212   -0.747977
H         2.424335    2.241725   -0.431058
H         3.941290    0.420098    0.260230
H         3.042452   -1.853087    0.626301
H         0.618863   -2.287385    0.300494
C        -3.416564   -0.382402   -0.238873
O        -1.127480   -0.594911   -0.475110
C        -2.118091    0.106021    0.144398
H        -4.283006    0.086394    0.199219
H        -3.518638   -1.193652   -0.942484
O        -1.922611    1.011545    0.914335
