23
0 2
C        -2.256710    0.000003    0.411724
C        -1.619754   -1.254857   -0.170212
C        -0.109719   -1.272976    0.067612
H        -1.812647   -1.286299   -1.246424
H        -2.074921   -2.149412    0.259413
C         0.552914   -0.000003   -0.337777
H         0.348135   -2.119059   -0.450944
H         0.063537   -1.452642    1.142568
C        -1.619749    1.254860   -0.170215
H        -2.130158    0.000005    1.499952
H        -3.331995    0.000005    0.222450
C        -0.109714    1.272974    0.067609
H        -2.074912    2.149418    0.259407
H        -1.812642    1.286300   -1.246427
H         0.348143    2.119054   -0.450949
H         0.063542    1.452641    1.142565
C         2.006293   -0.000006   -0.663075
C         2.907607    0.000004    0.580194
H         2.247663    0.878053   -1.269027
H         2.247663   -0.878073   -1.269014
H         2.724984    0.881552    1.196019
H         3.961617    0.000001    0.299225
H         2.724984   -0.881535    1.196033
