13
0 2
O         0.157558    1.298464    0.087423
C        -1.224228    1.145499   -0.189327
C        -1.630380   -0.234096    0.303731
H        -1.391423    1.231675   -1.266479
H        -1.749059    1.946089    0.327679
S        -0.197248   -1.270480   -0.098202
H        -2.517711   -0.603700   -0.204064
H        -1.798534   -0.241473    1.379138
C         0.832431    0.158815   -0.252118
C         2.262509    0.133281    0.129885
H         2.391229    0.144678    1.219670
H         2.774089    1.004538   -0.279666
H         2.744920   -0.762838   -0.257459
