7
0 1
C        -0.232354    0.396144    0.000001
O        -1.225027   -0.275950   -0.000004
C         1.160520   -0.147425    0.000002
H        -0.309629    1.502849    0.000007
H         1.148901   -1.234692   -0.000011
H         1.695969    0.223551    0.877025
H         1.695979    0.223572   -0.877007
