13
0 1
N        -0.000041    0.000002   -0.367595
C         0.703023    1.187288    0.059209
H         0.202879    2.075400   -0.327720
H         1.722066    1.175813   -0.328115
H         0.756469    1.277048    1.158338
C        -1.379758    0.015178    0.059205
H        -1.879304    0.903589   -0.327804
H        -1.484276    0.016126    1.158357
H        -1.898760   -0.861889   -0.328054
C         0.676750   -1.202458    0.059192
H         1.695889   -1.213312   -0.327894
H         0.157274   -2.079316   -0.327930
H         0.727962   -1.293522    1.158353
