28
0 1
C         3.422677    0.367166   -0.000017
C         2.753271   -0.174367   -1.257178
C         1.255882    0.107238   -1.257430
H         2.915662   -1.255785   -1.313439
H         3.214507    0.255405   -2.148544
C         0.575834   -0.442780    0.000024
H         0.785423   -0.321446   -2.144433
H         1.091019    1.187682   -1.310247
C         2.753267   -0.174230    1.257202
H         3.356225    1.460230   -0.000076
H         4.486001    0.119600   -0.000002
C         1.255878    0.107375    1.257419
H         3.214501    0.255639    2.148522
H         2.915659   -1.255642    1.313580
H         0.785417   -0.321213    2.144467
H         1.091015    1.187825    1.310118
C        -0.911285   -0.195623    0.000009
H         0.723142   -1.528226    0.000083
C        -1.804827   -1.258172    0.000072
C        -1.429459    1.095616   -0.000066
C        -2.795000    1.315577   -0.000078
C        -3.674420    0.244785   -0.000015
C        -3.173829   -1.044662    0.000060
H        -1.420687   -2.271151    0.000130
H        -4.742606    0.416264   -0.000024
H        -3.849971   -1.889705    0.000110
H        -0.757421    1.944323   -0.000115
H        -3.175824    2.328663   -0.000137
