19
0 1
C        -0.899726    0.321225   -0.016600
O        -1.248100    1.474809   -0.028777
C        -1.929986   -0.782324   -0.005652
H        -1.646040   -1.613476    0.637625
H        -2.038728   -1.177497   -1.017521
H        -2.885096   -0.371665    0.310326
C         0.581887   -0.064316   -0.006510
C         1.428551    1.154328   -0.352246
H         1.249005    1.968209    0.346933
H         1.195655    1.524055   -1.350592
H         2.486836    0.891470   -0.320249
C         0.850233   -1.188745   -1.009467
H         1.913399   -1.432029   -1.010747
H         0.577349   -0.889767   -2.022832
H         0.304164   -2.099062   -0.763806
C         0.927202   -0.542329    1.410391
H         1.986700   -0.796772    1.461673
H         0.360020   -1.428688    1.694956
H         0.732570    0.239717    2.144955
