15
0 1
C        -1.192323   -0.000025    0.000020
N        -2.336966   -0.000054    0.000032
C         0.277660   -0.000006   -0.000000
C         0.766098    1.377880   -0.457937
H         0.414003    1.604237   -1.463570
H         1.856373    1.391089   -0.462626
H         0.414513    2.161074    0.212523
C         0.766200   -1.085491   -0.964305
H         0.414551   -0.896534   -1.977788
H         0.414256   -2.069615   -0.657464
H         1.856478   -1.095999   -0.973397
C         0.766226   -0.292336    1.422204
H         0.414453    0.465579    2.121006
H         1.856506   -0.295139    1.435801
H         0.414459   -1.264445    1.765395
