21
0 1
C        -1.195086    0.140042    0.227376
O        -0.000000    0.000001   -0.524876
C         1.195086   -0.140042    0.227375
C         1.734175    1.221879    0.631348
C        -1.734175   -1.221880    0.631345
H        -1.971939   -1.805024   -0.259221
H        -2.639304   -1.118262    1.231508
H        -1.004703   -1.779123    1.219260
C         2.173291   -0.907932   -0.634622
H         2.354765   -0.364916   -1.563070
H         1.771825   -1.888650   -0.886509
H         3.125063   -1.039615   -0.119010
C        -2.173291    0.907933   -0.634619
H        -0.985863    0.724367    1.131926
H        -2.354765    0.364920   -1.563068
H        -1.771825    1.888652   -0.886504
H        -3.125063    1.039616   -0.119006
H         1.004703    1.779120    1.219264
H         1.971938    1.805025   -0.259217
H         2.639304    1.118259    1.231510
H         0.985863   -0.724370    1.131924
