19
0 1
C        -0.850307    0.361393   -0.000000
C        -0.334210    1.654725   -0.000000
C         1.029373    1.838533   -0.000000
C         1.893143    0.749819   -0.000000
C         1.388285   -0.537502   -0.000000
C         0.006708   -0.726521   -0.000000
H         2.963669    0.907715   -0.000000
H         1.431463    2.843272    0.000000
C         2.299887   -1.730692   -0.000001
H         3.345512   -1.427548    0.000003
H         2.130612   -2.354927   -0.879036
H         2.130607   -2.354932    0.879030
H        -0.381884   -1.734774   -0.000000
O        -2.203439    0.264738   -0.000000
C        -2.784240   -1.018215    0.000002
H        -3.859930   -0.864477    0.000003
H        -2.501266   -1.585178    0.890853
H        -2.501268   -1.585180   -0.890849
H        -1.021834    2.488889   -0.000000
