13
0 2
S        -0.025433   -1.461725    0.126935
C        -1.594424   -0.692154   -0.334341
C        -1.610495    0.696292    0.278341
H        -2.406094   -1.309006    0.047806
H        -1.663296   -0.639900   -1.420085
S        -0.004397    1.471514   -0.046787
H        -1.765404    0.639807    1.354756
H        -2.387056    1.320326   -0.161168
C         0.895026   -0.017387   -0.134579
C         2.374583   -0.011019   -0.005320
H         2.704206    0.045469    1.039267
H         2.803366    0.846379   -0.526704
H         2.803423   -0.914090   -0.440848
