10
0 2
C        -0.714145    0.552792    0.301001
C         0.666306    0.596097   -0.212684
N         1.509647   -0.464313    0.043769
H         0.968814    1.284793   -0.987276
O        -1.463387   -0.599939   -0.117886
H        -1.234053    1.472561    0.019129
H        -0.729740    0.485997    1.393804
H        -1.338612   -0.700720   -1.067100
H         1.261102   -1.068013    0.810816
H         2.499089   -0.318248   -0.062566
