15
0 1
N         0.588922    0.081869    0.000000
C         1.064097    1.443516   -0.000001
H         1.679690    1.635055    0.883571
H         0.243067    2.150532   -0.000006
H         1.679697    1.635050   -0.883569
C         1.618484   -0.932896   -0.000001
H         2.251356   -0.835026   -0.885866
H         1.146614   -1.909259    0.000001
H         2.251360   -0.835024    0.885862
C        -0.721077   -0.293128    0.000006
O        -1.054944   -1.463137   -0.000001
C        -1.766067    0.800010   -0.000001
H        -1.685292    1.435279    0.882256
H        -2.736735    0.315120   -0.000004
H        -1.685285    1.435276   -0.882260
