17
0 2
C        -0.381133   -0.007358   -0.014865
C        -1.530739   -0.809980   -0.619765
H        -1.510888   -1.846631   -0.277840
H        -1.477430   -0.810766   -1.709113
H        -2.489833   -0.380834   -0.326599
C        -0.433999    1.437284   -0.519665
H        -0.378999    1.469296   -1.608381
H         0.396126    2.019684   -0.122197
H        -1.365884    1.912874   -0.208938
C        -0.501499   -0.012046    1.518054
H        -1.432269    0.465820    1.830430
H         0.329611    0.528019    1.970661
H        -0.497334   -1.031758    1.906740
C         0.905075   -0.646478   -0.425743
O         2.036139    0.016891   -0.040032
H         0.978266   -1.728177   -0.497912
H         2.813281   -0.501188   -0.264681
