10
0 1
C         0.545230    0.645915   -0.000007
C        -0.828674    0.159372    0.000003
C        -1.947059   -0.261061    0.000002
C         1.573721   -0.483353    0.000003
H         1.456724   -1.113204   -0.881013
H         1.456735   -1.113179    0.881039
H         2.584719   -0.076332   -0.000009
H         0.692877    1.283874    0.874211
H         0.692870    1.283850   -0.874243
H        -2.943233   -0.630249    0.000012
