27
0 2
C         4.714406    0.147706    0.509341
C         3.500485    0.806358    0.537846
C         4.819465   -1.090348   -0.105364
C         3.705359   -1.663501   -0.693775
C         2.487387   -1.007022   -0.658446
C         2.373278    0.232143   -0.038151
H         3.400990    1.778212    1.000693
H         5.584213    0.600966    0.965950
H         5.770865   -1.604931   -0.131125
H         3.785166   -2.622570   -1.187927
H         1.633678   -1.458333   -1.145523
C         1.092955    1.002008    0.024504
O         1.091720    2.213351    0.217767
C        -0.128557    0.272008   -0.106964
O        -1.266220    0.955352   -0.127318
H        -0.185760   -0.802322   -0.199531
C        -2.468091    0.290402   -0.018968
C        -3.530701    0.822419   -0.726370
C        -2.626895   -0.820759    0.789482
C        -3.874169   -1.419004    0.867085
C        -4.944999   -0.907269    0.156037
C        -4.769759    0.217328   -0.635763
H        -3.368017    1.699924   -1.336137
H        -5.604094    0.626575   -1.189152
H        -1.798269   -1.198716    1.371484
H        -4.007573   -2.285722    1.500306
H        -5.916172   -1.377531    0.224399
