12
0 1
O         0.074479   -1.054161    0.000003
C         1.391327   -0.726050   -0.000007
C         1.538166    0.612546    0.000010
C         0.214467    1.155335   -0.000009
C        -0.634918    0.104416   -0.000001
H        -0.064920    2.195118   -0.000014
H         2.084486   -1.547973   -0.000010
H         2.468567    1.153861    0.000019
C        -2.109423   -0.017286    0.000003
H        -2.561718    0.972240   -0.000020
H        -2.459978   -0.556840    0.881303
H        -2.459979   -0.556881   -0.881272
