21
0 1
C         1.807799   -0.133995    0.012425
O         2.565883    0.822680   -0.560774
O         2.276665   -0.955938    0.749696
H         3.471735    0.693864   -0.243505
C         0.358091   -0.003934   -0.365174
C        -0.411096   -1.290636   -0.094051
C        -0.265678    1.182041    0.385880
C        -1.885973   -1.132530   -0.441514
H        -0.300609   -1.548187    0.961552
H         0.030707   -2.113591   -0.657638
C        -2.512194    0.043365    0.298299
H        -2.421077   -2.054749   -0.208977
H        -1.990890   -0.976042   -1.520269
C        -1.741320    1.331779    0.038871
H        -2.510739   -0.166176    1.372779
H        -3.556629    0.163368    0.004660
H        -1.835220    1.603073   -1.017585
H        -2.172040    2.155261    0.611344
H         0.279071    2.096677    0.150961
H        -0.158955    1.009683    1.461349
H         0.326488    0.226340   -1.434465
