22
0 1
C        -1.781760    1.293949   -0.741462
C        -1.288182   -0.121685   -0.427485
H        -1.032095    1.880805   -1.273671
H        -2.031810    1.818789    0.181311
H        -2.676516    1.252329   -1.362565
C        -2.338747   -0.925193    0.319507
H        -2.556371   -0.463740    1.281493
H        -1.997754   -1.942495    0.511922
H        -3.261623   -0.977165   -0.259093
C        -0.000000   -0.000001    0.367181
H        -1.050519   -0.613926   -1.374936
C         1.288183    0.121689   -0.427483
C         2.338748    0.925189    0.319518
H         3.261625    0.977165   -0.259081
H         2.556371    0.463726    1.281499
H         1.997757    1.942490    0.511942
C         1.781759   -1.293942   -0.741474
H         1.050521    0.613940   -1.374929
H         2.676515   -1.252317   -1.362575
H         1.032094   -1.880792   -1.273689
H         2.031808   -1.818791    0.181294
O        -0.000001   -0.000007    1.572658
