13
0 2
C        -2.827090    0.000015    0.000008
O        -3.984975   -0.000018    0.000002
C        -1.482575    0.000009   -0.000000
C        -0.748437    1.234237   -0.000001
C         0.616738    1.211862   -0.000002
C         1.310437   -0.000001   -0.000001
C         0.616730   -1.211859   -0.000002
C        -0.748446   -1.234224   -0.000001
H        -1.280052   -2.174459   -0.000002
H        -1.280036    2.174476   -0.000002
H         1.169648    2.140590   -0.000003
Cl         3.039792   -0.000007   -0.000001
H         1.169634   -2.140591   -0.000003
