15
0 1
C        -0.496820    1.445261    0.000001
C        -0.536651    0.121135   -0.000000
H        -1.407350    2.030399    0.000001
H         0.433736    1.994970    0.000001
C         0.688621   -0.750819   -0.000001
C         2.029062   -0.038914    0.000001
H         0.627265   -1.416045   -0.868201
H         0.627265   -1.416048    0.868197
H         2.144539    0.592678   -0.881400
H         2.844613   -0.762014    0.000000
H         2.144538    0.592676    0.881402
C        -1.835325   -0.628337   -0.000000
H        -2.689681    0.046285   -0.000001
H        -1.909122   -1.276428    0.876875
H        -1.909122   -1.276429   -0.876875
