7
0 1
C        -1.361687   -0.045771   -0.000000
C         0.123964   -0.139213   -0.000010
H        -1.689096    0.509029    0.878750
H        -1.793324   -1.041334   -0.000116
H        -1.689103    0.509244   -0.878611
O         0.812799   -1.093194   -0.000060
F         0.677275    1.097613    0.000057
