24
0 2
N         2.720188    0.289175   -0.098911
C         0.406839   -0.587329    0.079165
O         0.673825   -1.788923    0.238757
C         3.427019   -0.919162    0.277360
H         2.718977   -1.729415    0.400576
H         3.972673   -0.751306    1.210667
H         4.152060   -1.171876   -0.499599
C         3.565202    1.431559   -0.354584
H         2.964863    2.286443   -0.653885
H         4.274652    1.204804   -1.153615
H         4.135976    1.696687    0.540021
C         1.382898    0.427072   -0.116436
H         1.044492    1.421903   -0.357952
C        -1.029143   -0.160007    0.039063
C        -1.978169   -1.126571   -0.276480
C        -1.461283    1.130794    0.326468
C        -2.807277    1.450401    0.283831
C        -3.321538   -0.806855   -0.326516
C        -3.741403    0.484398   -0.048775
H        -1.634838   -2.131985   -0.475188
H        -4.046709   -1.568719   -0.580992
H        -4.793465    0.734774   -0.083371
H        -0.751581    1.893426    0.617262
H        -3.127875    2.456624    0.519831
