11
0 2
C        -0.769236   -1.739833   -0.000001
C         0.594385   -1.728801   -0.000001
C         1.385988   -0.621192   -0.000001
F         2.714990   -0.670849    0.000001
C        -1.385852   -0.501285   -0.000001
H        -1.361838   -2.644194   -0.000001
C        -0.640220    0.665465    0.000000
C         0.743529    0.609115   -0.000000
F         1.444260    1.734881    0.000001
F        -2.714518   -0.406027   -0.000000
F        -1.245813    1.846814    0.000001
