19
0 2
C        -2.357108    1.015699    0.260096
C        -2.050565   -0.347218   -0.341888
H        -1.580514    1.740249    0.012215
H        -2.414148    0.955527    1.348943
H        -3.308671    1.406113   -0.102219
C        -0.724850   -0.930199    0.138241
H        -2.030648   -0.272126   -1.432931
H        -2.856616   -1.043080   -0.098430
C         0.469161   -0.165810   -0.299985
H        -0.646420   -1.970808   -0.214539
H        -0.732350   -1.003593    1.232899
C         1.799276   -0.379370    0.321134
H         0.414136    0.393204   -1.228697
C         2.853120    0.623191   -0.126703
H         2.154342   -1.398271    0.099380
H         1.699405   -0.352669    1.412809
H         2.994253    0.582229   -1.208052
H         3.816762    0.424650    0.342781
H         2.556269    1.640822    0.130473
