17
0 2
C         2.229182    0.082890   -0.000001
O         3.368598   -0.648660    0.000000
O         2.260753    1.291699    0.000004
H         4.101646   -0.017014    0.000004
C        -0.285118   -0.347490   -0.000001
C        -0.682914    1.008360   -0.000002
C        -1.297720   -1.333507   -0.000000
C        -2.018711    1.340039   -0.000001
C        -2.997130    0.352891    0.000001
C        -2.627684   -0.987523    0.000001
H         0.077725    1.772932   -0.000003
H        -2.308048    2.382525   -0.000001
H        -4.043736    0.626360    0.000001
H        -3.386226   -1.758724    0.000002
H        -1.008420   -2.376664   -0.000000
C         1.058909   -0.772201   -0.000002
H         1.259357   -1.834489   -0.000004
