21
0 1
C         0.568467    1.974108    0.000000
C         1.921602    2.142223    0.000000
C         2.777080    1.023700    0.000000
C         2.256820   -0.236624    0.000000
C         0.860056   -0.441368    0.000000
C        -0.000000    0.681165    0.000000
C        -1.398879    0.474476    0.000000
C        -1.940208   -0.777900    0.000000
C        -1.067475   -1.892885    0.000000
C         0.283075   -1.732071    0.000000
H         0.936786   -2.595548    0.000000
H        -1.491701   -2.889736    0.000000
H        -2.047693    1.342720    0.000000
H        -0.090932    2.833166    0.000000
H         2.344383    3.138182    0.000000
H         3.849038    1.169735    0.000000
H         2.910082   -1.100412    0.000000
C        -3.423231   -0.999371    0.000000
H        -3.965056   -0.055008    0.000000
H        -3.734378   -1.567909    0.878422
H        -3.734378   -1.567909   -0.878422
