16
0 1
C         1.592879    0.162820   -0.316292
C         0.644956    1.205132    0.238461
O         1.356861   -1.094807    0.320538
H         2.623539    0.472225   -0.122562
H         1.459894    0.067169   -1.398956
H         1.990952   -1.740604   -0.003028
C        -0.809302    1.140688   -0.227908
H         0.691673    1.161105    1.330479
H         1.050807    2.178636   -0.047961
C        -1.641543   -0.022889    0.290440
H        -0.847051    1.130215   -1.321177
H        -1.300598    2.063925    0.092642
O        -1.323523   -1.262657   -0.298683
H        -2.690869    0.161942    0.056773
H        -1.557146   -0.075952    1.384348
H        -0.409835   -1.473451   -0.053602
