12
0 2
C        -1.425286   -0.000002    0.460462
C        -1.220255   -0.000002   -0.791551
C         0.086286   -0.000000   -0.072953
C         0.888333   -1.265613    0.047659
H         1.642279   -1.311606   -0.742945
H         0.254197   -2.145518   -0.033550
H         1.420480   -1.300900    1.001859
C         0.888330    1.265615    0.047659
H         0.254191    2.145518   -0.033549
H         1.642274    1.311610   -0.742947
H         1.420478    1.300904    1.001857
H        -1.938346    0.000004    1.401625
