10
0 2
C        -0.481523    0.000000   -0.400812
C        -1.585097   -0.776687    0.094759
C        -1.585097    0.776688    0.094760
H        -1.454087   -1.311692    1.027761
H        -2.255480   -1.251020   -0.611297
H        -2.255480    1.251022   -0.611295
H        -1.454087    1.311690    1.027763
N         0.895387   -0.000000   -0.065170
O         1.441357   -1.083478    0.055689
O         1.441358    1.083478    0.055688
