13
0 2
C         2.462948   -0.653250    0.000008
O         3.479510   -1.206447    0.000002
C         1.282532   -0.005326    0.000000
C         1.238485    1.428412   -0.000003
C         0.026162    2.059207   -0.000004
C        -1.176502    1.348540   -0.000002
C        -1.125269   -0.045196   -0.000000
C         0.051262   -0.739693    0.000001
H         0.054642   -1.818711    0.000002
H        -2.128448    1.855888   -0.000003
H         2.159481    1.992395   -0.000004
H        -0.001769    3.140676   -0.000007
Cl        -2.616335   -0.933814   -0.000000
