19
0 2
O        -0.642715    1.279135   -0.202923
C        -2.033762    1.180540    0.048571
C        -2.271247   -0.157086    0.729644
H        -2.579686    1.230626   -0.897660
H        -2.310524    2.025439    0.675891
S        -1.130478   -1.274871   -0.128235
H        -3.295827   -0.500283    0.610453
H        -2.022457   -0.116281    1.788713
C        -0.160890    0.093765   -0.689299
C         1.317102    0.011099   -0.805214
C         2.057170    0.087422    0.534211
H         1.655313    0.825483   -1.452286
H         1.575062   -0.920610   -1.314100
C         3.565368    0.010445    0.365166
H         1.709958   -0.725912    1.175426
H         1.782751    1.018583    1.033281
H         3.860902   -0.925462   -0.113307
H         4.077184    0.067208    1.326326
H         3.934256    0.828953   -0.256073
