14
0 1
O         0.210780    1.226769   -0.567781
C        -0.869712    1.265745    0.340800
C        -1.653058   -0.019632    0.151571
H        -1.455121    2.151315    0.099047
H        -0.513249    1.346747    1.373009
S        -0.368572   -1.281340   -0.038895
H        -2.278430    0.026073   -0.738004
H        -2.269323   -0.253441    1.017110
C         0.888647   -0.005079   -0.501192
C         2.045806    0.019629    0.472496
H         1.243091   -0.218039   -1.508645
H         1.703965    0.260650    1.478164
H         2.776335    0.764761    0.154772
H         2.533544   -0.954748    0.507063
