19
0 1
C        -2.627349    0.088352    0.110569
C        -1.992542   -1.131237   -0.067996
C        -0.619090   -1.184860   -0.209256
C         0.149155   -0.024315   -0.172885
C        -0.496717    1.190719    0.005734
C        -1.875335    1.247350    0.146818
H         0.071106    2.109566    0.039347
H        -2.359913    2.204606    0.287657
H        -3.702643    0.132292    0.221528
H        -2.572276   -2.044493   -0.099109
H        -0.122122   -2.136715   -0.340456
C         1.651200   -0.142951   -0.345743
O         2.158514   -1.246019    0.398562
H         1.906627   -1.131392    1.321095
C         2.433916    1.117360   -0.030826
H         1.849541   -0.419268   -1.384449
H         2.249099    1.450722    0.992486
H         2.176310    1.932098   -0.707443
H         3.496728    0.908218   -0.137653
