18
0 2
C         0.791841    0.360169    0.000000
C         0.197921    1.627397   -0.000000
C        -1.181460    1.738246   -0.000000
C        -1.981474    0.615858   -0.000000
C        -1.404183   -0.672521   -0.000000
C         0.010883   -0.772526   -0.000000
H        -3.059154    0.709483   -0.000000
H        -1.633734    2.721296   -0.000000
C        -2.202131   -1.818654   -0.000000
H        -3.279804   -1.743250   -0.000000
H        -1.762912   -2.805945   -0.000000
H         0.454241   -1.756951   -0.000000
O         2.148074    0.355246    0.000000
C         2.811160   -0.887670    0.000001
H         3.874545   -0.664607    0.000001
H         2.564544   -1.471096   -0.890941
H         2.564543   -1.471095    0.890942
H         0.837800    2.498401   -0.000000
