7
0 1
C        -1.160520   -0.147425    0.000001
C         0.232354    0.396144    0.000001
H        -1.695970    0.223554    0.877024
H        -1.148902   -1.234692   -0.000009
H        -1.695977    0.223571   -0.877009
O         1.225027   -0.275950   -0.000003
H         0.309629    1.502849    0.000006
