9
0 1
C         1.280047   -0.046185    0.213712
O         0.167934   -0.275538   -0.582150
F         1.805950    1.145322   -0.098116
F         2.173579   -0.985125   -0.095886
H         1.051195   -0.078098    1.279166
C        -1.046706   -0.030811   -0.035469
F        -1.282433   -0.822518    1.016445
F        -1.958487   -0.261122   -0.955697
F        -1.160243    1.228374    0.389763
