12
0 1
C         0.000000    0.692807   -1.719441
C        -0.000000   -0.692807   -1.719441
C         0.000000   -1.372041   -0.523122
H         0.000000   -1.254853   -2.641836
F         0.000000   -2.706065   -0.497586
C         0.000000    1.372041   -0.523122
H         0.000000    1.254853   -2.641836
C         0.000000    0.690873    0.681206
C        -0.000000   -0.690873    0.681206
F         0.000000   -1.351174    1.832028
F         0.000000    2.706065   -0.497586
F         0.000000    1.351174    1.832028
