7
0 2
C        -1.694205   -0.349248    0.000011
C         0.695370    0.107503   -0.000002
O         1.804012   -0.222986   -0.000017
C        -0.578145    0.500618    0.000009
H        -2.684104    0.075151    0.000015
H        -1.588176   -1.422376    0.000008
H        -0.697933    1.577872    0.000007
