18
0 1
C         0.431876    0.000001   -0.330706
C        -0.265744   -1.192749   -0.186892
C        -1.621056   -1.196061    0.095162
C        -2.303907   -0.000001    0.238230
C        -1.621058    1.196059    0.095163
C        -0.265746    1.192750   -0.186890
H         0.260903    2.132816   -0.301615
H        -3.363677   -0.000002    0.455660
H        -2.146811    2.136205    0.199743
H         0.260906   -2.132814   -0.301618
H        -2.146808   -2.136208    0.199740
C         1.913125    0.000003   -0.589112
C         2.728892   -0.000002    0.701627
H         2.177456    0.875639   -1.185249
H         2.177456   -0.875630   -1.185255
H         2.501722    0.880033    1.304456
H         3.798838   -0.000001    0.490193
H         2.501722   -0.880041    1.304450
