19
0 2
C        -1.549524   -0.710035   -0.768573
C        -0.415021   -0.013665   -0.016593
H        -2.510155   -0.243777   -0.542378
H        -1.612936   -1.762944   -0.488241
H        -1.391858   -0.657878   -1.846726
C         0.878739   -0.713240   -0.311349
C         2.205260   -0.097249   -0.062502
H         0.831069   -1.773842   -0.527415
H         2.376172    0.783235   -0.690327
H         3.012889   -0.801226   -0.256616
H         2.312684    0.247278    0.974424
C        -0.701130   -0.086580    1.494118
H        -0.779017   -1.122599    1.826167
H        -1.640745    0.417649    1.730817
H         0.091277    0.394274    2.069017
C        -0.358361    1.457477   -0.437700
H        -0.144029    1.551684   -1.503364
H         0.409639    2.003252    0.110989
H        -1.314762    1.944645   -0.240760
