11
0 2
C         1.587234   -0.433295    0.088720
C         0.614019    0.627428   -0.264340
H         2.383670   -0.518767   -0.651350
H         1.095630   -1.401122    0.189178
H         2.073444   -0.220752    1.051480
C        -0.783979    0.576702    0.229777
H         0.971460    1.549872   -0.704616
O        -1.432528   -0.661823   -0.045521
H        -1.361756    1.414299   -0.173907
H        -0.816755    0.661897    1.322920
H        -1.389109   -0.815856   -0.994481
