9
0 2
N         0.092789    0.469750   -0.125031
C        -1.183450   -0.185816    0.031035
H        -1.373946   -0.508435    1.061575
H        -1.214764   -1.068407   -0.609170
H        -1.983420    0.483636   -0.281700
C         1.248472   -0.250406    0.078831
H         0.117820    1.419353    0.209168
H         1.234105   -1.290048   -0.215054
H         2.180548    0.292985    0.051202
