15
0 2
C        -1.648248   -0.764031    0.004951
C        -0.560968    0.158122    0.001190
O        -0.702384    1.369295    0.003580
O         0.643962   -0.449622   -0.001802
N        -2.900360   -0.255173   -0.038499
H        -1.502204   -1.831218    0.008751
H        -2.987073    0.745629    0.047311
H        -3.700990   -0.827792    0.150131
C         1.779697    0.418572    0.002042
C         3.013416   -0.445751   -0.000756
H         1.734585    1.059541    0.883509
H         1.735202    1.066129   -0.874549
H         3.040482   -1.086099    0.880666
H         3.905703    0.180797    0.001706
H         3.040814   -1.079634   -0.886810
