10
0 1
C        -0.371310   -0.072952    0.378371
C        -1.082105    1.169187   -0.136570
H        -0.989297    1.231117   -1.219375
H        -0.660583    2.069831    0.308307
H        -2.139452    1.119943    0.126535
O        -0.862738   -1.260875   -0.207644
C         1.064853   -0.009742    0.079853
H        -0.459846   -0.120585    1.469919
N         2.183451    0.085851   -0.134865
H        -1.801707   -1.333221   -0.010109
