13
0 2
C        -1.084549    0.076433    0.000001
O         0.145848   -0.467892    0.000005
C         1.241091    0.456050    0.000002
O        -1.283044    1.270492   -0.000006
C        -2.124397   -0.922090   -0.000000
H        -1.882417   -1.973493    0.000005
H        -3.149733   -0.588630   -0.000008
C         2.515290   -0.346196   -0.000000
H         1.160439    1.096256    0.879188
H         1.160436    1.096254   -0.879185
H         2.574904   -0.980601    0.883929
H         3.374426    0.324834   -0.000003
H         2.574901   -0.980603   -0.883929
