16
0 1
C        -0.508209   -0.220837   -0.000002
C        -0.010967    1.081543   -0.000002
C         1.348811    1.319339   -0.000001
C         2.246046    0.261261    0.000001
C         1.768213   -1.036473    0.000002
C         0.404157   -1.271588   -0.000000
H         0.034426   -2.289587    0.000000
H         2.458132   -1.869959    0.000003
H        -0.694153    1.919800   -0.000005
H         1.714704    2.337701   -0.000001
C        -1.944308   -0.528375   -0.000003
C        -2.949330    0.335265    0.000004
H         3.311080    0.450883    0.000003
H        -2.178129   -1.588313   -0.000009
H        -2.798292    1.406616    0.000011
H        -3.974249   -0.007955    0.000002
