30
0 2
C         0.088235   -1.486470    0.098994
O        -1.035933   -0.788329   -0.219690
O         1.227456   -0.919862   -0.335983
H         0.060034   -2.559485   -0.091018
C        -2.242700   -1.374716    0.241622
C         1.395049    0.468799   -0.051731
C         2.811125    0.856636   -0.401992
H         1.189924    0.637249    1.010555
H         0.674952    1.046538   -0.632860
C         3.865445    0.168536    0.451890
H         2.897969    1.942006   -0.294896
H         2.984219    0.632250   -1.458169
C         5.281012    0.572931    0.072626
H         3.749497   -0.912164    0.356871
H         3.683561    0.406247    1.504330
H         5.496434    0.316469   -0.966452
H         6.020426    0.071325    0.697522
H         5.428100    1.649366    0.182962
C        -3.401878   -0.517644   -0.206518
H        -2.211520   -1.450833    1.333446
H        -2.330082   -2.388346   -0.165655
C        -3.391516    0.880659    0.393228
H        -4.327504   -1.031528    0.068893
H        -3.391112   -0.453705   -1.297968
C        -4.567872    1.724395   -0.070781
H        -2.454247    1.373560    0.130127
H        -3.401656    0.801565    1.484429
H        -4.561257    1.842670   -1.156007
H        -4.542859    2.720776    0.371096
H        -5.518469    1.262805    0.204150
