13
0 1
C         0.101368    0.412421   -0.936013
N        -1.007499    0.024262   -0.003334
O        -1.646892   -0.967839   -0.271493
O        -1.191734    0.735076    0.959633
C         1.410284    0.569115   -0.189727
H        -0.219861    1.351492   -1.383530
H         0.135163   -0.368032   -1.690332
C         1.884075   -0.718209    0.465964
H         1.298088    1.358401    0.553140
H         2.147915    0.917140   -0.915690
H         1.175891   -1.063877    1.220029
H         2.842132   -0.567164    0.961647
H         2.007805   -1.515660   -0.268390
