28
0 1
C        -1.373334   -0.194743   -1.215341
N        -0.700078    0.219407    0.000000
C        -1.373334   -0.194743    1.215341
H        -0.589864    1.227166    0.000000
C        -0.629033    0.265733    2.456571
H        -1.429308   -1.287655    1.209674
H        -2.413424    0.168335    1.255002
C        -0.629033    0.265733   -2.456571
H        -2.413424    0.168335   -1.255002
H        -1.429308   -1.287655   -1.209674
C         0.749394   -0.358553    2.616679
H        -1.239016    0.036471    3.335012
H        -0.534928    1.357693    2.432936
C         1.481418    0.141323    3.851808
H         1.338958   -0.155095    1.721911
H         0.640901   -1.446082    2.668158
H         1.632040    1.222004    3.808312
H         2.462087   -0.325053    3.951397
H         0.917218   -0.074690    4.761581
C         0.749394   -0.358553   -2.616679
H        -0.534928    1.357693   -2.432936
H        -1.239016    0.036471   -3.335012
C         1.481418    0.141323   -3.851808
H         0.640901   -1.446082   -2.668158
H         1.338958   -0.155095   -1.721911
H         0.917218   -0.074690   -4.761581
H         2.462087   -0.325053   -3.951397
H         1.632040    1.222004   -3.808312
