18
0 2
C        -0.020113   -0.229312   -0.000000
C         0.481213    1.083680    0.000000
C         1.838117    1.324537    0.000000
C         2.743184    0.271276    0.000000
C         2.270309   -1.032827   -0.000000
C         0.913671   -1.278731   -0.000000
H         0.550624   -2.298912   -0.000001
H         2.966394   -1.861284   -0.000000
H        -0.201416    1.921577    0.000000
H         2.199140    2.344710    0.000001
C        -1.416854   -0.540060   -0.000000
C        -2.478988    0.370734    0.000000
H         3.806929    0.466675    0.000001
H        -1.673193   -1.594299   -0.000001
C        -3.787652    0.010007   -0.000000
H        -2.248609    1.430123    0.000001
H        -4.080575   -1.032241   -0.000001
H        -4.576617    0.747823    0.000000
