29
0 2
S        -0.173498    1.151886   -0.267614
O         0.296982    0.946303   -1.612049
O        -0.391455    2.485170    0.223077
C        -1.681029    0.247770   -0.077662
C        -2.620144    0.676326    0.846640
C        -1.892712   -0.886368   -0.846367
C        -3.062524   -1.604061   -0.679543
C        -4.005880   -1.187141    0.246662
C        -3.787647   -0.048370    1.005487
H        -4.531963    0.280107    1.718038
H        -2.436686    1.578419    1.413181
H        -1.152501   -1.183937   -1.575386
H        -3.242267   -2.486881   -1.277830
H        -4.921187   -1.750038    0.372533
C         0.911705    0.340898    0.808048
Si         2.488612   -0.494613    0.236075
H         0.591104    0.402206    1.842553
C         2.041827   -1.872896   -0.940978
H         1.367708   -2.594755   -0.478082
H         2.940266   -2.407686   -1.255087
H         1.558804   -1.467088   -1.829385
C         3.574772    0.766070   -0.602070
H         3.063816    1.190982   -1.465626
H         4.502150    0.302016   -0.943687
H         3.835097    1.580976    0.074216
C         3.302134   -1.173465    1.774239
H         2.659444   -1.895211    2.280829
H         3.539175   -0.378182    2.482573
H         4.235215   -1.680900    1.522964
