15
0 1
C         1.868145   -1.178427    0.140467
C         2.541304    0.026829    0.015694
C         1.830330    1.204812   -0.134062
C         0.446879    1.179736   -0.145469
C        -0.232525   -0.025068   -0.013366
C         0.487343   -1.205626    0.117464
H         2.423135   -2.099993    0.252122
H        -0.089114    2.108608   -0.298890
H         3.622840    0.047022    0.028553
H         2.352644    2.144765   -0.248977
C        -1.723218   -0.122639   -0.033526
O        -2.311908   -1.126620   -0.302292
O        -2.406846    0.997962    0.276446
H        -1.811739    1.686779    0.591771
H        -0.057278   -2.135617    0.198980
