13
0 2
C        -0.322739   -0.479383    0.000008
C         0.996758    0.142269    0.000008
O         1.130874    1.352282   -0.000015
C         2.187718   -0.780978    0.000000
H         2.164958   -1.428552   -0.878611
H         2.164984   -1.428529    0.878629
H         3.104094   -0.197569   -0.000021
C        -1.489982    0.277431    0.000000
H        -0.385554   -1.561645    0.000016
C        -2.741175   -0.258194    0.000002
H        -1.364856    1.354318   -0.000007
H        -2.891782   -1.330372    0.000009
H        -3.622314    0.367228   -0.000005
