11
0 2
C         0.767636    1.201567   -0.000675
C         0.090025   -0.000003   -0.007146
H         0.242385    2.146262   -0.016529
H         1.848466    1.229011    0.019531
C        -1.417783   -0.000017    0.001807
H        -1.816588    0.882679   -0.496314
H        -1.793909    0.000184    1.026417
H        -1.816573   -0.882913   -0.495968
C         0.767668   -1.201549   -0.000675
H         1.848499   -1.228961    0.019530
H         0.242445   -2.146258   -0.016528
