16
0 1
C        -1.088038   -0.000000   -0.403867
C         0.364679   -0.000005   -0.228569
C         1.550101   -0.000002   -0.066081
C        -1.712256    1.262119    0.192171
H        -1.538445    1.301067    1.268187
H        -2.789142    1.270880    0.018520
H        -1.283420    2.159540   -0.251733
C        -1.712263   -1.262115    0.192172
H        -1.289426   -0.000000   -1.479609
H        -1.538453   -1.301062    1.268189
H        -1.283432   -2.159539   -0.251730
H        -2.789149   -1.270870    0.018520
C         2.992859   -0.000000    0.126607
H         3.312955    0.881787    0.682742
H         3.515116   -0.000211   -0.830787
H         3.312908   -0.881574    0.683106
