25
0 2
C        -2.964280    0.929945    0.229328
C        -1.625457    1.256553    0.139824
C        -3.369332   -0.385007    0.063341
C        -2.428513   -1.368361   -0.188896
C        -1.085822   -1.042139   -0.263971
C        -0.669813    0.273973   -0.102143
H        -1.293885    2.279007    0.252408
H        -3.695777    1.702419    0.425614
C         1.913944   -0.277740    0.047312
H        -4.418359   -0.642349    0.127804
C         0.759008    0.721946   -0.188300
H        -0.363047   -1.816765   -0.473531
H        -2.740097   -2.394775   -0.328976
O         0.997756    1.884005   -0.409193
C         3.235359    0.502114    0.000928
H         4.066016   -0.181310    0.175361
H         3.248891    1.279918    0.763699
H         3.373507    0.983825   -0.964333
C         1.924203   -1.305562   -1.032533
H         1.961148   -2.361121   -0.801750
H         1.993738   -1.002357   -2.068121
C         1.758696   -0.919117    1.431080
H         2.610484   -1.571957    1.624579
H         0.849774   -1.510412    1.515426
H         1.737604   -0.155793    2.209541
