21
0 2
C         1.903135   -1.007327   -0.421364
S         1.018845    0.425730   -1.092736
C        -0.034215    0.907252    0.190352
C        -0.384705    2.354675    0.291666
H        -0.577268    2.629133    1.330213
H        -1.296096    2.591844   -0.269361
H         0.420271    2.982278   -0.089999
S        -0.883523   -0.241238    1.179335
C        -1.753362   -1.287463   -0.031538
C        -2.786435   -0.540102   -0.849461
H        -2.213427   -2.067499    0.576136
H        -1.018553   -1.764655   -0.678365
H        -3.532651   -0.073708   -0.207034
H        -3.296059   -1.221480   -1.533375
H        -2.313869    0.239066   -1.446966
C         2.851201   -0.657461    0.708146
H         2.439188   -1.410719   -1.280785
H         1.178935   -1.754514   -0.103572
H         3.589475    0.076617    0.386924
H         3.377716   -1.550570    1.049507
H         2.303488   -0.245125    1.554283
