10
0 2
C         0.520073    0.122559   -0.000007
O        -0.529137   -0.721657   -0.000003
C        -1.812565   -0.102732    0.000002
H        -1.937315    0.519129    0.885245
H        -2.533271   -0.914680    0.000005
H        -1.937322    0.519130   -0.885238
O         0.399904    1.326497    0.000003
C         1.781860   -0.573725    0.000001
H         1.819187   -1.651918    0.000001
H         2.686373    0.013010    0.000010
