22
0 1
C         1.977001   -0.659101    0.056847
C         1.977001    0.659101   -0.056847
C         0.721716   -1.472896    0.109376
C        -0.520274   -0.694855   -0.323001
C        -0.520274    0.694855    0.323001
C         0.721716    1.472896   -0.109376
H         2.919332    1.192765   -0.112648
H         2.919332   -1.192765    0.112649
H         0.575205    1.854450   -1.127493
H         0.833022    2.360171    0.520106
H         0.575205   -1.854450    1.127493
H         0.833022   -2.360171   -0.520105
C        -1.775469   -1.501281   -0.022853
H        -0.458124   -0.545277   -1.408141
H        -1.934993   -1.581601    1.055468
H        -1.685128   -2.514149   -0.418882
H        -2.667157   -1.055416   -0.460985
C        -1.775469    1.501281    0.022853
H        -0.458124    0.545277    1.408141
H        -1.934992    1.581601   -1.055469
H        -1.685128    2.514149    0.418881
H        -2.667157    1.055416    0.460985
