30
0 1
S        -1.373731   -0.818295   -0.162514
O        -2.458820   -1.218645   -1.020073
O        -1.103139   -1.576052    1.031532
C         1.387965   -0.449474   -0.610578
C         2.064915    0.633725   -1.154230
C         1.936170   -1.107240    0.484213
C         3.127921   -0.671992    1.033623
C         3.791799    0.417944    0.493194
C         3.260215    1.067625   -0.606804
H         3.775765    1.913634   -1.041313
H         1.652967    1.144888   -2.015661
H         1.409281   -1.945289    0.918607
H         3.541642   -1.187437    1.890063
H         4.724049    0.755655    0.925692
C         0.089196   -0.893861   -1.208478
H        -0.153004   -0.348187   -2.117064
H         0.096160   -1.957289   -1.455367
C        -1.669882    0.914062    0.324906
C        -1.667964    1.794048   -0.918537
H        -1.993134    2.796754   -0.638975
H        -2.353414    1.413017   -1.674095
H        -0.672537    1.883282   -1.351428
C        -3.058406    0.892343    0.964850
H        -3.293620    1.900275    1.307754
H        -3.085033    0.223584    1.823997
H        -3.818870    0.576804    0.254145
C        -0.630618    1.368328    1.342973
H         0.366149    1.441002    0.915457
H        -0.594596    0.688602    2.191396
H        -0.914290    2.357955    1.704548
