12
0 2
C        -0.966257   -0.774006    0.000011
C        -0.966256    0.774008   -0.000009
C         0.488485    1.138479   -0.000005
H        -1.483086    1.181483    0.873199
H        -1.483072    1.181458   -0.873238
C         1.267529   -0.000001   -0.000001
C         0.488483   -1.138480    0.000004
H         0.855748   -2.153770    0.000008
H        -1.483090   -1.181481   -0.873196
H        -1.483072   -1.181456    0.873241
H         0.855750    2.153769   -0.000011
H         2.348922   -0.000002   -0.000002
