27
0 2
C         1.035975   -1.812627    0.083712
N        -0.317867   -1.458193    0.457106
C        -1.221694   -1.104060   -0.527987
H        -0.381815   -0.913362    1.302366
C        -2.510823   -0.481755   -0.123255
H        -1.149867   -1.676408   -1.443807
C         1.865339   -0.664313   -0.484291
H         0.975579   -2.617434   -0.652662
H         1.530616   -2.228309    0.964725
C        -2.371019    0.889907    0.548381
H        -3.061613   -1.144570    0.561884
H        -3.136876   -0.375061   -1.011430
C        -1.767316    1.947923   -0.361064
H        -1.764607    0.798311    1.455158
H        -3.357142    1.214174    0.888995
H        -0.777814    1.647890   -0.706893
H        -1.673636    2.906698    0.150243
H        -2.389347    2.099855   -1.245412
C         2.085748    0.475864    0.497534
H         1.367061   -0.282844   -1.379604
H         2.833363   -1.060277   -0.806146
C         2.908554    1.610606   -0.091480
H         2.579752    0.089798    1.394998
H         1.118869    0.868433    0.822466
H         3.894251    1.261058   -0.404287
H         3.053991    2.416066    0.628946
H         2.415709    2.034058   -0.968578
