8
0 1
C        -0.849642    0.097724   -0.008751
N        -1.924801   -0.291349   -0.022000
C         0.522792    0.602090    0.047352
N         1.476470   -0.481315   -0.112002
H         0.619323    1.173471    0.978898
H         0.649208    1.307427   -0.775335
H         1.410111   -1.147909    0.645278
H         2.420772   -0.123222   -0.142434
