27
0 1
O        -0.771179    0.233997    0.000000
C        -1.424402   -0.175137    1.177005
C        -0.624872    0.284554    2.373909
H        -1.525970   -1.270195    1.183918
H        -2.437917    0.247392    1.206698
C         0.759202   -0.341967    2.454986
H        -1.193244    0.046110    3.277880
H        -0.535925    1.373746    2.336174
C         1.549425    0.136245    3.662462
H         1.305011   -0.113647    1.538400
H         0.656986   -1.430992    2.489220
H         1.690859    1.218410    3.634058
H         2.536372   -0.325624    3.702521
H         1.032423   -0.103362    4.594049
C        -1.424402   -0.175137   -1.177005
C        -0.624872    0.284554   -2.373909
H        -2.437917    0.247392   -1.206698
H        -1.525970   -1.270195   -1.183918
C         0.759202   -0.341967   -2.454986
H        -0.535925    1.373746   -2.336174
H        -1.193244    0.046110   -3.277880
C         1.549425    0.136245   -3.662462
H         0.656986   -1.430992   -2.489220
H         1.305011   -0.113647   -1.538400
H         1.032423   -0.103362   -4.594049
H         2.536372   -0.325624   -3.702521
H         1.690859    1.218410   -3.634058
