23
0 2
C        -0.442383    0.971998   -0.006839
C         0.887450    1.309891    0.023526
C         1.911312    0.382841    0.013285
C         1.532306   -0.942453   -0.017017
C         0.218967   -1.342830   -0.041810
C        -0.814263   -0.387269   -0.046582
H        -1.179257    1.755805   -0.005731
H         0.012419   -2.399856   -0.056678
C        -2.159912   -0.863246   -0.036499
C        -2.521099   -2.297139    0.071162
H        -3.589699   -2.429815   -0.053532
H        -2.246538   -2.701726    1.049022
H        -1.997628   -2.882753   -0.685546
N        -3.267239    0.059773   -0.056952
O        -4.287723   -0.293715    0.504649
O        -3.135185    1.123791   -0.637012
N         1.247617    2.742953    0.071403
O         0.343306    3.543646    0.110803
O         2.426972    3.013609    0.069581
H         2.947170    0.679630    0.030931
N         2.583596   -1.978086   -0.021457
O         3.731699   -1.600899   -0.004151
O         2.224859   -3.134495   -0.041968
