15
0 2
N        -1.072047    0.024032    0.315212
N        -2.332799   -0.290796   -0.093941
O        -2.946225    0.560674   -0.704363
O        -2.713984   -1.407849    0.200872
C        -0.486667    1.222023    0.037779
H        -0.589299   -0.739672    0.772197
N         1.980320    0.864524   -0.156584
N         2.135152   -0.484712   -0.085369
O         1.543681   -1.068106    0.808508
O         2.874686   -0.989239   -0.896003
C         0.872699    1.495516    0.563344
H         2.256393    1.199342   -1.068104
H         1.069780    2.563670    0.505058
H         0.969036    1.202525    1.608325
H        -1.061761    1.913721   -0.551542
