16
0 2
C        -0.531736    0.190700   -0.000000
O         0.660211   -0.437574    0.000001
C         1.815487    0.407840   -0.000001
O        -0.642147    1.397488   -0.000002
C        -1.634606   -0.740233    0.000001
C         3.031428   -0.480664    0.000002
H         1.780764    1.052538    0.879027
H         1.780764    1.052534   -0.879032
H         3.046644   -1.117906    0.883830
H         3.935361    0.128780    0.000000
H         3.046644   -1.117910   -0.883824
C        -3.032925   -0.275297   -0.000000
H        -1.400588   -1.796035    0.000002
H        -3.077433    0.811338   -0.000002
H        -3.571271   -0.653363    0.874793
H        -3.571271   -0.653366   -0.874792
