21
0 1
C        -1.538957   -0.977781    1.402454
S        -1.886900    0.103694    0.045625
H        -0.564354   -0.738332    1.818202
H        -1.585732   -2.010231    1.065192
H        -2.321292   -0.787247    2.134324
O        -1.722593    1.454839    0.504784
O        -3.129266   -0.303203   -0.548415
C         0.796647   -0.103944   -0.618698
C         1.576575   -1.232746   -0.405836
C         1.321028    1.146816   -0.314608
C         2.601429    1.261204    0.194817
C         3.373634    0.129934    0.405115
C         2.859297   -1.118604    0.102508
H         3.457408   -2.006277    0.259239
H         1.178514   -2.211211   -0.645834
H         0.712444    2.028605   -0.460931
H         2.998842    2.239599    0.429266
H         4.375732    0.222685    0.801833
C        -0.596078   -0.243978   -1.150347
H        -0.814189    0.470018   -1.945904
H        -0.793564   -1.245207   -1.528763
