20
0 2
C         1.526907   -0.373798    0.097780
O         0.504686    0.499789   -0.065323
C        -0.851386    0.018253    0.000127
C        -1.126742   -0.939815   -1.151730
H        -0.862230   -0.472972   -2.100403
H        -2.186129   -1.195219   -1.176302
H        -0.566013   -1.868380   -1.054455
C         2.869705    0.232302   -0.029032
H         1.353634   -1.407103   -0.179919
H         3.065333    0.597871   -1.046275
H         3.640837   -0.496642    0.217913
H         2.974592    1.086952    0.642616
C        -1.103516   -0.643547    1.347182
H        -0.870193    0.048682    2.155825
H        -0.488897   -1.533739    1.472523
H        -2.150599   -0.935531    1.430961
C        -1.690827    1.274634   -0.146261
H        -1.479444    1.761142   -1.098044
H        -1.460485    1.975527    0.655288
H        -2.752744    1.032916   -0.105544
