21
0 1
C         0.825128    1.405266    0.000005
C        -0.538994    1.227619    0.000003
C         1.671059    0.299386    0.000002
C         1.132373   -0.983488   -0.000001
C        -0.239425   -1.143568   -0.000001
C        -1.095568   -0.050981    0.000000
H        -1.176896    2.100355    0.000005
H         1.265665    2.392440    0.000007
H         1.769884   -1.854143   -0.000003
H        -0.674988   -2.133171   -0.000004
C        -2.562350   -0.292628   -0.000003
O        -3.006859   -1.418131   -0.000001
C        -3.491113    0.895366   -0.000009
H        -3.323339    1.518376   -0.879661
H        -3.323342    1.518381    0.879640
H        -4.515999    0.536150   -0.000010
O         2.993221    0.567042    0.000002
C         3.903220   -0.512687    0.000004
H         4.895172   -0.070231    0.000009
H         3.783484   -1.132582   -0.891475
H         3.783477   -1.132585    0.891479
