18
0 1
C        -2.467815   -0.727498    0.000000
O        -2.479508   -1.930266   -0.000002
C        -1.246747    0.100936   -0.000000
H        -3.415520   -0.154235    0.000002
C        -1.362069    1.478812    0.000000
C        -0.211983    2.256729    0.000000
C         1.027825    1.658320    0.000000
C         1.142001    0.266172   -0.000000
C         0.002628   -0.515407   -0.000000
H        -2.341662    1.939456    0.000001
H        -0.284554    3.335861    0.000001
H         0.036864   -1.594196   -0.000001
H         1.935710    2.245979    0.000000
O         2.403025   -0.220346    0.000000
C         2.576273   -1.621891    0.000001
H         2.135778   -2.075788    0.890787
H         3.648785   -1.793430    0.000001
H         2.135779   -2.075789   -0.890786
