18
0 2
C        -0.165497   -0.770840   -0.469786
O         1.168476   -0.729419   -0.304738
O        -0.872470   -0.296861    0.596400
H        -0.502979   -1.723606   -0.878956
C         1.717373    0.521604    0.107368
C        -2.280284   -0.284547    0.412973
C         3.218670    0.402804    0.067834
H         1.365048    0.759511    1.111982
H         1.359909    1.301901   -0.571119
H         3.557639   -0.388702    0.735815
H         3.676924    1.340311    0.384144
H         3.561778    0.171841   -0.940269
C        -2.741913    0.901786   -0.404052
H        -2.702363   -0.253691    1.416611
H        -2.593436   -1.224975   -0.053333
H        -2.437105    1.833492    0.072391
H        -3.829402    0.898357   -0.491141
H        -2.314154    0.870956   -1.405445
