19
0 2
C        -0.869881   -1.138209    0.070559
C        -2.227583   -1.355413    0.141015
C        -3.124034   -0.297764    0.089490
C        -2.641458    0.997916   -0.023808
C        -1.287105    1.231042   -0.087792
C        -0.353724    0.170948   -0.050067
H        -0.195559   -1.975746    0.101622
H        -3.328432    1.832575   -0.060030
H        -0.940260    2.249699   -0.164634
H        -2.593815   -2.368793    0.235507
H        -4.188756   -0.481145    0.139591
C         1.031986    0.502641   -0.077258
C         1.542409    1.898282   -0.073249
H         2.610047    1.913067   -0.260485
H         1.369175    2.382460    0.891514
H         1.037807    2.491121   -0.835585
N         2.047453   -0.510599   -0.016329
O         3.113145   -0.196688    0.493728
O         1.821101   -1.619026   -0.477044
