26
0 1
C        -2.452286    1.136272   -0.344691
C        -1.070877    1.146208   -0.344399
C        -3.163089   -0.000001    0.000001
C        -2.452284   -1.136274    0.344692
C        -1.070876   -1.146208    0.344397
C        -0.338062   -0.000000   -0.000001
H        -0.562572    2.062672   -0.600495
H        -2.979372    2.042728   -0.614247
H        -4.243929   -0.000001    0.000001
H        -2.979370   -2.042730    0.614248
H        -0.562570   -2.062672    0.600493
N         1.039698    0.000000   -0.000002
C         1.799050   -1.133468    0.480456
C         1.799049    1.133471   -0.480456
C         2.069574   -2.187253   -0.585220
H         1.287262   -1.578932    1.334171
H         2.747018   -0.756106    0.868863
H         1.138600   -2.587211   -0.985501
H         2.650262   -3.014092   -0.173078
H         2.632520   -1.759615   -1.415838
C         2.069570    2.187253    0.585222
H         1.287261    1.578935   -1.334171
H         2.747018    0.756110   -0.868864
H         1.138595    2.587209    0.985503
H         2.650257    3.014095    0.173083
H         2.632517    1.759614    1.415840
