14
0 1
C         0.137416    1.442755    0.095485
C         0.000055    0.000017   -0.373152
H        -0.690720    2.057204   -0.261171
H         1.066128    1.890219   -0.262057
H         0.142780    1.493591    1.187241
C        -1.318219   -0.602378    0.095136
C         1.180771   -0.840398    0.095458
H         0.000177    0.000121   -1.468200
H         1.222637   -0.869639    1.187227
H         2.126938   -0.431110   -0.262056
H         1.103348   -1.868662   -0.261254
H        -1.365000   -0.623689    1.186888
H        -1.436496   -1.626582   -0.262041
H        -2.169934   -0.021436   -0.262143
