18
0 1
C        -2.884070    0.511142   -0.000001
O        -3.753530   -0.322111   -0.000001
C        -1.444523    0.225680   -0.000000
H        -3.140549    1.589949   -0.000003
C        -0.973466   -1.088921   -0.000000
C         0.373325   -1.342648    0.000000
C         1.285160   -0.283047    0.000000
C         0.829769    1.029588    0.000000
C        -0.534130    1.268473   -0.000000
H        -1.692604   -1.896889   -0.000000
H         0.760647   -2.352000    0.000000
H        -0.895585    2.290063   -0.000000
O         2.586131   -0.632576    0.000000
C         3.563854    0.386604    0.000001
H         3.483596    1.012345    0.891786
H         3.483598    1.012346   -0.891782
H         4.525173   -0.118696    0.000002
H         1.519412    1.859151    0.000000
