11
0 2
C         0.732994    0.598036   -0.238493
C        -0.686499    0.656150    0.192858
N         1.452210   -0.544757    0.037058
H         1.289380    1.504746   -0.421137
H         0.932059   -1.308353    0.438041
H         2.420395   -0.476215    0.295173
N        -1.350341   -0.620465   -0.077139
H        -1.168936    1.519441   -0.280928
H        -0.762131    0.813758    1.281243
H        -1.421780   -0.779605   -1.074499
H        -2.281032   -0.642327    0.316486
