13
0 2
C        -0.618951   -1.247259    0.000000
C         0.734493   -1.218733   -0.000001
C        -1.438406   -0.000000    0.000002
C        -0.618952    1.247258    0.000001
H        -2.120933   -0.000001    0.863699
H        -2.120937   -0.000000   -0.863691
C         0.734492    1.218733   -0.000001
C         1.445498    0.000000   -0.000002
H         2.525969    0.000001   -0.000003
H        -1.143492    2.194280    0.000001
H         1.286919    2.150227   -0.000002
H        -1.143491   -2.194280    0.000001
H         1.286920   -2.150226   -0.000002
