8
0 2
N         1.001888   -0.525221    0.000003
C        -0.198089   -1.164641    0.000014
C        -1.183788   -0.237803   -0.000006
N        -0.582979    1.002288   -0.000007
C         0.705981    0.803232   -0.000003
H         1.911059   -0.951332    0.000007
H        -2.250801   -0.363623   -0.000005
H         1.462747    1.570759   -0.000007
