8
0 1
C        -1.141748    0.132262   -0.000011
N         0.140622   -0.529405    0.000006
H        -1.067270    1.227207   -0.000020
H        -1.706205   -0.187760    0.876649
H        -1.706190   -0.187775   -0.876674
C         1.174368    0.179985    0.000009
H         2.151967   -0.296171    0.000015
H         1.147627    1.276851   -0.000005
