13
0 1
C        -1.238258   -0.722101    0.105814
C         0.029513    0.086161    0.034954
O         0.077680    1.284918    0.072559
O         1.107797   -0.697581   -0.037081
N        -2.377360    0.105842   -0.219688
H        -1.258867   -1.150312    1.118023
H        -1.147608   -1.562442   -0.584531
H        -2.206548    1.059507    0.072623
H        -3.224180   -0.229426    0.214129
C         2.366834   -0.023298   -0.044771
H         3.119208   -0.803435   -0.103322
H         2.491132    0.561085    0.865233
H         2.436027    0.640857   -0.904144
