10
0 1
C         0.606667   -0.400877   -0.000000
C        -0.606667    0.400877    0.000000
C        -1.832287   -0.106579    0.000000
H        -2.708902    0.526051    0.000001
H        -1.997631   -1.177263    0.000000
H        -0.471609    1.478230    0.000000
C         1.832287    0.106579   -0.000000
H         0.471609   -1.478230   -0.000000
H         1.997631    1.177263   -0.000000
H         2.708902   -0.526051   -0.000001
