25
0 2
C         2.930906   -1.354410    0.000006
C         1.559006   -1.171226    0.000002
C         3.775512   -0.257897    0.000005
C         3.247008    1.024242    0.000002
C         1.878563    1.206515   -0.000002
C         1.021415    0.110794   -0.000001
H         0.911613   -2.036337    0.000002
H         3.340824   -2.355431    0.000008
C        -1.398475   -0.831146   -0.000002
C        -2.837770   -0.460147    0.000002
H         4.847979   -0.401645    0.000008
C        -0.451921    0.366833   -0.000005
H         1.444523    2.196483   -0.000004
H         3.906443    1.881837    0.000001
O        -0.878103    1.496542   -0.000012
H        -1.151704   -1.440044   -0.875657
H        -1.151699   -1.440043    0.875652
C        -3.470294   -0.050256    1.279751
H        -4.555805   -0.160436    1.243119
H        -3.261315    1.005558    1.500425
H        -3.095383   -0.632797    2.123801
C        -3.470303   -0.050265   -1.279746
H        -3.095397   -0.632812   -2.123794
H        -3.261325    1.005548   -1.500429
H        -4.555814   -0.160445   -1.243106
