14
0 1
C        -0.661187    1.246895    0.000000
C         0.661187    1.246895    0.000000
C        -1.488859   -0.000000    0.000000
C        -0.661187   -1.246895    0.000000
H        -2.158998   -0.000000   -0.867704
H        -2.158998   -0.000000    0.867705
C         0.661187   -1.246895   -0.000000
C         1.488859    0.000000   -0.000000
H         2.158998    0.000000    0.867704
H         2.158998    0.000000   -0.867705
H        -1.195509   -2.190233    0.000000
H         1.195509   -2.190233   -0.000000
H        -1.195509    2.190233    0.000001
H         1.195509    2.190233    0.000000
