11
0 2
N         0.316832   -0.045996   -0.000001
C        -0.864239   -0.656152   -0.000001
O        -1.968066   -0.207086   -0.000001
C         0.418211    1.404695    0.000002
H        -0.582669    1.825987    0.000000
H         0.954619    1.747703   -0.886998
H         0.954615    1.747700    0.887005
C         1.546928   -0.804161    0.000000
H         1.310024   -1.864418   -0.000005
H         2.142356   -0.572310    0.886098
H         2.142361   -0.572302   -0.886092
