8
0 2
C         0.000000    0.740023   -0.000001
N         1.233444    0.031921    0.085528
N        -1.233445    0.031922   -0.085530
H         0.000001    1.816066    0.000000
O         1.256271   -1.027151    0.664369
O         2.174306    0.608207   -0.426313
O        -1.256271   -1.027151   -0.664369
O        -2.174305    0.608207    0.426314
