11
0 1
C         0.000000    1.265940   -0.258561
C         0.000000   -0.000000    0.584572
H         0.880450    1.307040   -0.903048
H         0.000000    2.162579    0.362211
H        -0.880450    1.307040   -0.903048
C        -0.000000   -1.265940   -0.258561
H        -0.873489    0.000000    1.241532
H         0.873489   -0.000000    1.241532
H        -0.880450   -1.307040   -0.903048
H        -0.000000   -2.162579    0.362211
H         0.880450   -1.307040   -0.903048
