14
0 2
N         2.769547    0.197791   -0.143678
C         1.685438   -0.608438   -0.199611
C         0.421870   -0.042434    0.135829
H         1.800748   -1.645992   -0.464821
O         0.268339    1.134575    0.428623
O        -0.587900   -0.934199    0.099409
C        -1.880276   -0.382544    0.394130
N        -2.352583    0.448600   -0.661231
H        -1.796416    0.132796    1.352074
H        -2.522123   -1.253218    0.498726
H         2.596326    1.178463    0.014122
H         3.641635   -0.077587   -0.554042
H        -2.119577    1.420916   -0.535435
H        -3.325047    0.317370   -0.882605
