20
0 1
C        -1.231644   -1.191086    0.465639
C        -2.568129   -1.051070    0.131792
C        -3.034062    0.154014   -0.362242
C        -2.160034    1.217667   -0.520466
C        -0.827398    1.080563   -0.178903
C        -0.354421   -0.127215    0.318915
H        -0.865919   -2.137859    0.842222
H        -2.518365    2.159717   -0.913196
H        -0.147400    1.909797   -0.317806
H        -3.243357   -1.887311    0.253315
H        -4.076814    0.265034   -0.627872
C         1.090449   -0.299078    0.712021
C         1.589356    0.707651    1.726253
H         1.478366    1.724078    1.358680
H         2.639097    0.536712    1.962330
H         1.004501    0.599562    2.638576
N         1.940513   -0.225209   -0.545793
H         1.248642   -1.316057    1.058389
O         2.247050    0.871555   -0.955982
O         2.237068   -1.274792   -1.068036
