30
0 2
C         0.260368   -1.621796    0.111727
O         1.424494   -1.592962   -0.565199
O        -0.694099   -0.789585   -0.389116
H        -0.054568   -2.638345    0.346321
C         1.929044   -0.307928   -0.925492
C        -1.900500   -0.764730    0.352594
C        -2.835578    0.262563   -0.251522
H        -1.680457   -0.514132    1.396631
H        -2.359552   -1.760192    0.333331
C        -2.228155    1.657545   -0.199139
H        -2.069844    1.969090    0.836476
H        -2.888736    2.387073   -0.669061
H        -1.267386    1.687953   -0.710369
C        -4.181572    0.212968    0.458566
H        -2.982706   -0.013502   -1.300006
H        -4.074292    0.466255    1.515936
H        -4.634413   -0.777674    0.395204
H        -4.877601    0.927106    0.018395
C         2.276265    0.563185    0.271116
H         1.206926    0.198011   -1.567963
H         2.824410   -0.519312   -1.511272
C         2.749851    1.923953   -0.220825
H         3.654815    1.827699   -0.825926
H         2.983524    2.580309    0.617827
H         1.990437    2.417011   -0.829845
C         3.311590   -0.103424    1.164334
H         1.358350    0.704862    0.848515
H         3.521967    0.510527    2.041075
H         4.251029   -0.248207    0.624814
H         2.967060   -1.078172    1.506273
