19
0 2
C        -1.124073   -1.184092    0.807358
C        -0.691961   -0.302471   -0.374804
C         0.726618    0.159833   -0.214206
C         1.048996    1.327248    0.650875
H         2.063412    1.684060    0.465519
H         0.999900    1.070609    1.720262
H         0.365888    2.163073    0.499103
C         1.815530   -0.815773   -0.490744
H         2.741720   -0.311903   -0.776117
H         1.544392   -1.509831   -1.288120
H         2.057330   -1.424606    0.393751
C        -1.689461    0.833745   -0.576655
H        -0.723016   -0.932310   -1.270583
H        -1.787774    1.443715    0.322688
H        -2.677928    0.435315   -0.809039
H        -1.386734    1.487167   -1.395640
H        -1.118476   -0.612051    1.737304
H        -0.457326   -2.037602    0.932686
H        -2.135279   -1.566574    0.657242
