17
0 1
C         2.442094   -0.645682    0.431451
C         1.255232    0.076047   -0.132531
H         2.390837   -0.637738    1.520000
H         3.353947   -0.159039    0.100313
H         2.431873   -1.686710    0.111304
O         1.307216    1.072280   -0.801148
O         0.113478   -0.535826    0.207250
C        -1.124779    0.051891   -0.253522
C        -2.128206   -1.075417   -0.309861
H        -3.086275   -0.704100   -0.673706
H        -2.279195   -1.504814    0.681186
H        -1.787416   -1.864158   -0.979357
C        -1.532153    1.169868    0.681339
H        -0.942383    0.454650   -1.249482
H        -2.472946    1.609890    0.349327
H        -0.776948    1.953309    0.696853
H        -1.670167    0.786837    1.693489
