10
0 2
N        -1.189588    0.686203    0.000000
C         0.000000    1.273010    0.000000
C         1.202632    0.583709    0.000000
C        -0.075318   -1.366355   -0.000000
C        -1.240127   -0.647503   -0.000000
C         1.168431   -0.805837   -0.000000
H         2.076346   -1.395084   -0.000000
H        -0.005188    2.357034    0.000000
H         2.142489    1.119786    0.000000
H        -2.220233   -1.107299   -0.000000
