15
0 2
C        -3.083767    0.000003    0.000001
O        -4.234590   -0.000004    0.000000
C        -1.739363    0.000002    0.000001
C        -1.013884    1.239191    0.000000
C         0.345706    1.220729    0.000000
C         1.030930    0.000000   -0.000000
C         0.345704   -1.220728    0.000000
C        -1.013885   -1.239188    0.000001
H        -1.552156    2.175531    0.000000
H         0.913926    2.138031   -0.000001
H        -1.552159   -2.175527    0.000000
N         2.468833   -0.000001   -0.000001
O         3.040170    1.077996   -0.000001
O         3.040169   -1.077999   -0.000001
H         0.913923   -2.138031   -0.000000
