11
0 2
C        -0.961056   -1.076870   -0.095889
C        -0.045487   -0.001220    0.352814
O        -0.525865    1.281725   -0.043461
H        -0.661402    1.268221   -0.996800
H        -0.590233   -2.058874   -0.353567
H        -2.029025   -0.916186   -0.048929
C         1.389487   -0.218523   -0.099739
H        -0.057744    0.050250    1.449327
H         1.447182   -0.251910   -1.189715
H         1.780049   -1.160147    0.288845
H         2.020430    0.594527    0.255416
