14
0 2
C         0.714678    1.217078   -0.233809
C         1.449009   -0.070310    0.128133
C         0.612248   -1.270640   -0.155936
H         1.698692   -0.042928    1.200784
H         2.396302   -0.149653   -0.406315
O        -0.709790   -1.222879    0.150473
H         0.998864   -2.270774   -0.012069
N        -1.344573   -0.024927   -0.334071
C        -0.711727    1.134158    0.278131
H        -0.720835    1.076674    1.375070
H        -1.296355    2.003412   -0.026904
H         0.687569    1.340697   -1.317517
H         1.223375    2.082298    0.192650
H        -2.282522   -0.143929    0.029896
