17
0 1
C         2.443711   -0.618260    0.721716
C         2.035075    0.315894   -0.407119
H         3.413923   -1.073317    0.522177
H         1.719285   -1.423389    0.843573
H         2.517928   -0.080378    1.669302
C         0.698276    0.996645   -0.161845
H         1.981313   -0.240388   -1.343654
H         2.795224    1.088370   -0.539281
C        -0.472942    0.053619   -0.227633
H         0.512062    1.767752   -0.914536
H         0.676876    1.506284    0.802872
O        -1.561237    0.584857    0.347169
C        -2.743801   -0.211766    0.290725
H        -3.025789   -0.404011   -0.743081
H        -3.513443    0.364440    0.794959
H        -2.586670   -1.163520    0.795139
O        -0.470340   -1.029688   -0.744987
