8
0 2
C        -1.289765   -0.053282    0.168413
O        -0.183312   -0.324697   -0.574502
F        -2.204814   -0.971995   -0.024435
F        -1.781327    1.151330   -0.048688
C         1.030779   -0.034625   -0.014569
F         1.120317    1.243910    0.333505
F         1.947638   -0.304929   -0.919856
F         1.253787   -0.771091    1.067581
