16
0 1
C         0.008441    0.516486    1.215380
N         0.059476   -0.271503    0.000000
C         0.008441    0.516486   -1.215380
H        -0.692388   -0.950857    0.000000
C         0.008441   -0.370802   -2.443277
H         0.888296    1.165541   -1.229575
H        -0.868427    1.184525   -1.239754
H         0.892782   -1.007603   -2.454695
H        -0.003608    0.225868   -3.355563
H        -0.872307   -1.016746   -2.458812
C         0.008441   -0.370802    2.443277
H        -0.868427    1.184525    1.239754
H         0.888296    1.165541    1.229575
H        -0.872307   -1.016746    2.458812
H        -0.003608    0.225868    3.355563
H         0.892782   -1.007603    2.454695
