18
0 2
C         0.881221   -0.716908   -0.000001
C        -0.237748    0.219687    0.000004
C         2.291045   -0.367115   -0.000005
H         0.657531   -1.774450   -0.000005
O        -0.147716    1.423994    0.000010
O         3.092320   -1.290312   -0.000011
O        -1.405412   -0.435078    0.000002
C        -2.588714    0.379215    0.000005
C         2.743678    1.062781   -0.000001
C        -3.777259   -0.544094   -0.000003
H        -2.567428    1.022843   -0.879762
H        -2.567431    1.022830    0.879782
H        -3.775037   -1.180766   -0.884092
H        -4.697066    0.040747   -0.000000
H        -3.775040   -1.180780    0.884076
H         2.353774    1.589433   -0.870289
H         3.830036    1.080490   -0.000006
H         2.353783    1.589426    0.870295
