20
0 1
C         1.182101   -0.198276   -0.721741
O         1.739772   -1.351436   -0.140268
C         2.008257    0.989696   -0.427563
N         2.661114    1.898345   -0.191404
C         1.783808   -1.350360    1.275519
H         2.393453   -0.523819    1.650695
H         2.241274   -2.292187    1.565345
H         0.782266   -1.285116    1.706503
C        -0.277432    0.008016   -0.361903
H         1.258231   -0.369745   -1.797216
C        -1.160724   -1.021490   -0.663878
C        -2.096683    1.271616    0.565461
C        -2.972118    0.245050    0.265439
C        -2.500623   -0.904987   -0.350390
C        -0.750356    1.153591    0.254385
H        -0.070415    1.960185    0.494293
H        -2.457507    2.170663    1.046606
H        -4.021951    0.337848    0.509267
H        -0.787233   -1.920862   -1.136528
H        -3.181487   -1.711037   -0.588965
