15
0 2
C         0.644782    0.085587   -0.000001
C        -0.749043   -0.281875   -0.000004
O        -1.083714   -1.464086    0.000001
C        -1.810360    0.795146    0.000001
H        -1.726937    1.435215   -0.879598
H        -1.726933    1.435216    0.879600
H        -2.784659    0.314940    0.000004
C         1.674770   -0.981426    0.000001
H         2.325039   -0.888469    0.875567
H         2.325039   -0.888472   -0.875566
H         1.215603   -1.965450    0.000002
C         1.114129    1.494993   -0.000001
H         1.745068    1.686889    0.873899
H         0.306741    2.221379   -0.000005
H         1.745076    1.686887   -0.873895
