11
0 1
C        -0.784975    0.553483    0.266916
C         0.629476    0.647951   -0.271850
N         1.362028   -0.552431    0.121435
H         1.094249    1.582458    0.065147
H         0.586712    0.671332   -1.361774
O        -1.406344   -0.632734   -0.165630
H        -1.384462    1.392464   -0.088386
H        -0.762629    0.602645    1.365204
H        -0.721978   -1.315032   -0.116166
H         1.655959   -0.509789    1.088596
H         2.181697   -0.703791   -0.448022
