10
0 1
N        -1.114411   -0.000000   -0.000000
C        -0.329008    1.116834   -0.000002
C         0.975810    0.709105    0.000004
C         0.975811   -0.709104   -0.000004
C        -0.329008   -1.116834    0.000002
H        -2.117317   -0.000000   -0.000001
H        -0.759007    2.103313   -0.000004
H         1.837287    1.355109    0.000007
H         1.837287   -1.355108   -0.000006
H        -0.759007   -2.103313    0.000004
