11
0 1
C        -0.000037   -0.000035   -0.542016
N        -0.113739   -1.414916   -0.042111
N         1.282224    0.608949   -0.042326
O         0.569740   -1.735550    0.889384
O        -0.914822   -2.077313   -0.648986
O         1.218327    1.361080    0.889257
O         2.256303    0.246492   -0.649450
N        -1.168490    0.805955   -0.042187
H        -0.000099   -0.000102   -1.624492
O        -1.341666    1.830773   -0.649284
O        -1.787837    0.374568    0.889447
