21
0 1
C         0.058913    2.131753    0.000000
C         1.232023    1.403644    0.000001
C         1.214237    0.014423    0.000001
C        -0.013562   -0.653410    0.000002
C        -1.203424    0.082883    0.000001
C        -1.153277    1.468869   -0.000000
C        -2.532728   -0.614778   -0.000001
H        -2.650723   -1.255351   -0.876413
H        -3.348454    0.105825   -0.000022
H        -2.650742   -1.255320    0.876430
H        -2.078189    2.032067   -0.000002
H         0.089106    3.213368    0.000000
C         2.520455   -0.731674   -0.000002
H         2.184731    1.918278    0.000000
C        -0.087433   -2.154800    0.000001
H         0.894240   -2.617919    0.000059
H        -0.626204   -2.522884   -0.875701
H        -0.626307   -2.522881    0.875641
H         3.356434   -0.034546   -0.000011
H         2.622441   -1.371054   -0.878495
H         2.622451   -1.371043    0.878499
