12
0 2
C         0.607040   -0.447457   -0.015692
N         1.895801    0.076652    0.016528
C        -0.530738    0.497511    0.126454
H         0.509955   -1.452545    0.377048
H         2.016995    0.944623   -0.484275
H         2.634993   -0.575916   -0.190437
C        -1.880600   -0.168899   -0.094880
H        -0.409049    1.322360   -0.586381
H        -0.517710    0.968650    1.121486
H        -1.948617   -0.590309   -1.098279
H        -2.697714    0.541292    0.032510
H        -2.033673   -0.981643    0.617337
