11
0 2
C         1.857411    0.186065   -0.060085
C         0.512852   -0.512885    0.078513
H         2.678416   -0.523892    0.035330
H         1.986908    0.946846    0.711841
H         1.945788    0.677329   -1.029522
C        -0.624737    0.427475   -0.023715
H         0.472950   -1.048989    1.038341
H         0.403420   -1.281879   -0.691907
O        -1.856451   -0.163189   -0.048102
H        -0.565677    1.423259    0.406243
H        -2.543345    0.508906   -0.053795
