25
0 1
N        -3.089619   -0.660768    0.089837
C        -2.044453    0.225690   -0.382037
C        -0.700830   -0.408948   -0.066467
O        -0.569151   -1.568665    0.224460
O         0.291279    0.465144   -0.202372
C         1.691318    0.088317   -0.005983
C         2.428079    1.389530   -0.266099
H        -2.791537   -1.625194    0.027107
H        -3.946364   -0.536330   -0.429189
C        -2.201840    1.614076    0.221474
H        -2.036330    0.329760   -1.478628
H        -2.124132    1.560536    1.307000
H        -3.189269    2.005614   -0.023685
H        -1.450309    2.302019   -0.159306
H         2.234950    1.742452   -1.278668
H         3.501046    1.240851   -0.148535
H         2.104776    2.158073    0.435201
C         1.906688   -0.374118    1.425395
H         2.973129   -0.519742    1.599233
H         1.389659   -1.308699    1.622286
H         1.549510    0.382837    2.124029
C         2.092052   -0.968538   -1.021750
H         1.863683   -0.627407   -2.031934
H         1.578460   -1.908154   -0.840185
H         3.166950   -1.139140   -0.957485
