16
0 1
C         1.297402    0.505526   -0.000000
N         2.544676   -0.244009    0.000000
C         0.020868   -0.325775    0.000000
H         1.301617    1.163729   -0.872842
H         1.301617    1.163730    0.872841
H         2.607488   -0.841260   -0.814675
H         2.607488   -0.841259    0.814676
C        -1.245126    0.517491   -0.000000
H         0.022587   -0.983356    0.876166
H         0.022587   -0.983357   -0.876165
C        -2.516872   -0.316198    0.000000
H        -1.238930    1.175543   -0.873889
H        -1.238930    1.175544    0.873888
H        -2.563914   -0.959816   -0.880491
H        -3.408061    0.312120   -0.000000
H        -2.563914   -0.959815    0.880492
