16
0 2
C         0.906550    0.211801   -0.025388
O         1.628253   -0.924230    0.026270
O         1.425363    1.288972   -0.104360
H         2.561029   -0.666700   -0.003146
C        -0.598298   -0.051808    0.048034
C        -1.337976    1.264254   -0.165213
H        -1.054371    1.998680    0.586236
H        -2.412123    1.092166   -0.100345
H        -1.109850    1.685758   -1.143117
C        -0.979729   -1.068591   -1.037092
H        -0.713227   -0.696479   -2.027314
H        -2.056243   -1.234737   -1.012779
H        -0.477269   -2.020684   -0.881042
C        -0.880032   -0.604646    1.406717
H        -1.181187    0.053077    2.209449
H        -0.648777   -1.635081    1.634429
