19
0 2
C        -2.463574    1.001134    0.153828
C        -1.095140    1.184552    0.113879
C        -2.997150   -0.273444    0.042780
C        -2.155006   -1.361329   -0.108588
C        -0.783507   -1.177788   -0.138167
C        -0.240161    0.096813   -0.025236
H        -0.661268    2.171822    0.186462
H        -3.118663    1.854332    0.269521
C         2.159097   -0.705211    0.165540
C         3.617500   -0.495478    0.110457
H         4.076135   -0.711924    1.080485
H         3.849637    0.528434   -0.170614
H         4.080376   -1.182972   -0.603897
H        -4.069111   -0.417780    0.070337
C         1.231543    0.364233   -0.069197
H        -0.142932   -2.038030   -0.272523
H        -2.566517   -2.356997   -0.206623
H         1.786518   -1.686202    0.425717
O         1.640526    1.504803   -0.281330
