27
0 1
O        -0.000000   -0.000002    0.689724
C        -1.283564    0.001574    0.056478
C         1.283564   -0.001575    0.056480
C        -2.212520    0.411171    1.193148
H        -2.113865   -0.287482    2.023176
H        -3.251467    0.419302    0.862733
H        -1.948923    1.405485    1.551900
C        -1.667595   -1.400166   -0.416416
H        -1.482206   -2.120860    0.379648
H        -1.112048   -1.708248   -1.298484
H        -2.729079   -1.430624   -0.665760
C        -1.418883    1.005696   -1.083070
H        -1.156170    2.008952   -0.750873
H        -2.455231    1.022045   -1.422052
H        -0.799989    0.747276   -1.940053
C         2.212520   -0.411173    1.193149
H         2.113863    0.287477    2.023178
H         3.251466   -0.419303    0.862735
H         1.948923   -1.405489    1.551898
C         1.418885   -1.005693   -1.083071
H         2.455233   -1.022041   -1.422053
H         0.799991   -0.747272   -1.940054
H         1.156172   -2.008950   -0.750877
C         1.667594    1.400168   -0.416410
H         1.482203    2.120860    0.379655
H         1.112049    1.708251   -1.298479
H         2.729079    1.430627   -0.665752
