13
0 1
C         0.591171   -0.000002   -0.465286
N        -0.842664   -0.000000    0.014734
O        -1.027894    0.000008    1.211313
O        -1.714128   -0.000005   -0.825797
C         1.262827    1.266376    0.024692
H         0.737257    2.154679   -0.324192
H         2.281448    1.299683   -0.360261
H         1.299559    1.282717    1.112440
C         1.262825   -1.266377    0.024703
H         2.281446   -1.299689   -0.360251
H         0.737254   -2.154683   -0.324174
H         1.299558   -1.282709    1.112450
H         0.497363   -0.000006   -1.547940
