13
0 1
C        -0.000001   -1.218446   -0.136510
C        -1.226106   -0.317344    0.103790
C        -0.661599    1.068681   -0.046774
H        -1.639921   -0.451025    1.108668
H        -2.038366   -0.523975   -0.595014
C         0.661601    1.068679   -0.046779
C         1.226105   -0.317346    0.103785
H         2.038363   -0.523979   -0.595022
H         1.639924   -0.451027    1.108662
H        -0.000004   -1.554379   -1.174079
H        -0.000001   -2.107874    0.491693
H        -1.281468    1.953459   -0.104989
H         1.281471    1.953456   -0.104997
