14
0 1
C         0.053485    1.201533    0.094404
C         1.313938    0.884678   -0.148247
C         1.556007   -0.594960   -0.046885
C         0.133429   -1.175913    0.017683
H         2.128829   -0.826184    0.855883
H         2.133326   -0.984239   -0.887100
C        -0.782358   -0.010842    0.404508
H         0.044082   -2.022732    0.695251
H        -0.183269   -1.506438   -0.971611
H        -0.352008    2.205081    0.109891
H         2.101755    1.593395   -0.367516
O        -1.985263   -0.101431   -0.350107
H        -1.032082   -0.036600    1.473245
H        -2.605540    0.562194   -0.035972
