23
0 2
C         1.460181   -1.602202    0.000000
C         2.807971   -1.383055    0.000000
C         3.312938   -0.071851    0.000000
C         2.453998    0.994523   -0.000000
C         1.063524    0.800072   -0.000000
C         0.548947   -0.521521   -0.000000
C        -0.843185   -0.721136   -0.000000
C        -1.741673    0.348495   -0.000000
C        -1.190749    1.674273   -0.000000
C         0.143140    1.886663   -0.000000
H         0.535939    2.895955   -0.000000
H        -1.876003    2.512728   -0.000000
H        -1.215654   -1.737027    0.000000
H         1.069060   -2.612022    0.000000
H         3.493020   -2.220520    0.000000
H         4.382228    0.091765    0.000000
H         2.839394    2.006670   -0.000000
C        -3.130080    0.171600   -0.000000
C        -3.806265   -1.152676   -0.000000
H        -3.746882    1.061425    0.000001
H        -3.532403   -1.747492   -0.877014
H        -4.888773   -1.043110   -0.000012
H        -3.532421   -1.747482    0.877026
