13
0 1
C        -0.099187    0.979052    0.259454
C         1.165518    0.429089   -0.406451
C         1.614863   -0.903189    0.169279
C        -1.268578    0.130483    0.065265
C        -2.217014   -0.575097   -0.109096
H         1.831223   -0.816027    1.235954
H         2.518244   -1.259443   -0.325920
H         0.842085   -1.662374    0.047674
H        -3.063758   -1.198677   -0.260258
H        -0.319484    1.974080   -0.133044
H         0.075431    1.099976    1.332076
H         1.958157    1.171029   -0.288719
H         0.984498    0.329409   -1.478466
