36
0 1
C        -1.407946    0.053046   -0.127693
C        -0.719524   -1.150892   -0.125669
C         0.665420   -1.235126   -0.122278
C         1.407946   -0.053046   -0.127693
C         0.719524    1.150892   -0.125667
C        -0.665420    1.235126   -0.122276
H         1.280912    2.076526   -0.126862
H        -1.280912   -2.076525   -0.126865
C        -2.921785    0.078570   -0.083501
C        -3.414210    0.015327    1.363563
H        -4.501632    0.096609    1.410401
H        -2.986225    0.816699    1.966150
H        -3.124837   -0.932219    1.821624
C        -3.578262   -1.014033   -0.921465
H        -3.246583    1.033580   -0.499326
H        -3.399367   -2.006624   -0.506605
H        -3.206552   -1.006295   -1.946270
H        -4.658724   -0.866625   -0.949739
C        -1.319811    2.589155   -0.118395
H        -0.568985    3.375149   -0.056818
H        -1.999447    2.712910    0.726002
H        -1.902379    2.759525   -1.025934
C         1.319811   -2.589154   -0.118399
H         0.568985   -3.375149   -0.056823
H         1.999446   -2.712911    0.725998
H         1.902379   -2.759523   -1.025937
C         2.921785   -0.078570   -0.083501
C         3.414210   -0.015329    1.363564
H         3.124837    0.932216    1.821625
H         4.501632   -0.096611    1.410401
H         2.986225   -0.816702    1.966149
C         3.578262    1.014035   -0.921463
H         3.246583   -1.033579   -0.499327
H         3.206552    1.006298   -1.946269
H         4.658724    0.866626   -0.949738
H         3.399367    2.006624   -0.506602
