16
0 2
O         0.003993   -1.151617   -0.614610
C         1.352403   -1.190844   -0.183763
C         1.792071    0.218619    0.026761
H         1.920837   -1.699870   -0.964826
H         1.444078   -1.789598    0.734693
S         0.487383    1.310646    0.063609
H         2.807219    0.528432    0.206330
C        -0.716920   -0.108129   -0.007222
C        -1.888438    0.230612   -0.898766
H        -2.564074   -0.623887   -0.946454
H        -1.541702    0.462418   -1.903107
H        -2.439288    1.084352   -0.505447
C        -1.150576   -0.481421    1.401005
H        -0.292256   -0.712484    2.029512
H        -1.798984   -1.357833    1.355011
H        -1.697140    0.338051    1.865338
