13
0 1
C         0.590966   -0.506283    0.000000
N         1.943903    0.027951   -0.000000
C        -0.532873    0.523001   -0.000000
H         0.485963   -1.156298    0.872907
H         0.485963   -1.156299   -0.872907
H         2.105258    0.605987    0.814928
H         2.105258    0.605986   -0.814929
C        -1.913605   -0.114173    0.000000
H        -0.421333    1.169699   -0.875732
H        -0.421332    1.169700    0.875731
H        -2.055734   -0.743854   -0.880447
H        -2.702559    0.638003   -0.000000
H        -2.055734   -0.743853    0.880448
