24
0 1
C         0.443616    0.957174    0.246686
C        -0.877543    1.286659    0.034829
C        -1.876365    0.341528   -0.064549
C        -1.496187   -0.975008    0.057638
C        -0.183975   -1.353077    0.263979
C         0.797153   -0.380707    0.363552
H         1.180186    1.743748    0.300519
H         0.053344   -2.403720    0.343048
C         2.227442   -0.792790    0.597866
C         2.897938   -0.098603    1.764916
H         2.909640    0.979722    1.628735
H         3.924415   -0.444393    1.877765
H         2.351246   -0.333225    2.677015
N         3.014560   -0.517588   -0.673672
H         2.279601   -1.872156    0.700352
O         3.283293    0.635690   -0.919702
O         3.303032   -1.471223   -1.356155
N        -1.242665    2.711169   -0.083624
O        -0.357244    3.524105    0.054990
O        -2.402982    2.968700   -0.307979
H        -2.904582    0.620850   -0.228641
N        -2.529842   -2.021686   -0.035436
O        -3.666796   -1.663108   -0.237201
O        -2.169389   -3.169807    0.098652
