18
0 1
C        -0.403751    0.006196    0.009138
C        -0.491464   -0.380659    1.482766
H         0.382574   -0.027679    2.028803
H        -0.543391   -1.464948    1.598246
H        -1.382679    0.048865    1.943644
C        -1.586751   -0.580599   -0.756272
H        -1.593721   -1.670554   -0.694738
H        -1.554654   -0.303128   -1.811839
H        -2.530235   -0.218621   -0.345129
C        -0.408202    1.527284   -0.129631
H        -1.343472    1.945923    0.244515
H        -0.303739    1.830035   -1.174310
H         0.399885    1.983748    0.444694
C         0.877346   -0.569315   -0.600302
O         2.069359   -0.116585    0.014339
H         0.895113   -0.356028   -1.676044
H         0.879064   -1.653929   -0.480760
H         2.217309    0.801562   -0.225991
