24
0 1
C        -2.884712   -0.005278    0.000000
C        -2.198600    1.193317   -0.000003
C        -0.811316    1.208661   -0.000003
C        -0.076809    0.030127    0.000000
C        -0.786928   -1.169364    0.000003
C        -2.168273   -1.191453    0.000003
H        -0.252319   -2.109939    0.000005
H        -2.741490    2.129622   -0.000005
C         1.450447    0.006141   -0.000000
C         2.052533    1.409673   -0.000005
H         1.758126    1.976209   -0.884048
H         3.140690    1.339061   -0.000004
H         1.758125    1.976215    0.884035
C         1.947709   -0.728037   -1.251227
H         1.587528   -1.755548   -1.285845
H         3.038722   -0.755341   -1.264816
H         1.608036   -0.224202   -2.156930
H        -0.306760    2.163266   -0.000005
H        -2.689063   -2.140198    0.000005
C         1.947710   -0.728029    1.251231
H         1.608037   -0.224188    2.156931
H         3.038722   -0.755332    1.264821
H         1.587529   -1.755539    1.285856
H        -3.966443   -0.018637    0.000000
