12
0 1
C        -1.077470   -0.000013   -0.097228
N        -2.194198   -0.000011    0.153259
C         0.355058   -0.000002   -0.399416
C         1.013046   -1.268471    0.143082
H         0.937909   -1.304995    1.229742
H         2.068232   -1.278403   -0.128587
H         0.543164   -2.163306   -0.261558
C         1.013014    1.268488    0.143079
H         0.439018   -0.000002   -1.489104
H         0.937881    1.305006    1.229741
H         0.543100    2.163309   -0.261554
H         2.068197    1.278454   -0.128596
