22
0 2
C         1.868139   -0.580943   -0.936754
O         2.381724   -1.617292   -0.746281
C        -0.256918    0.165503    0.021054
C        -1.146461    1.207924   -0.195815
C        -2.513658    0.980359   -0.218823
C        -3.012530   -0.295431   -0.035498
C        -2.133398   -1.345976    0.170952
C        -0.771271   -1.115766    0.199204
H        -0.783099    2.213386   -0.347275
H        -3.189324    1.808918   -0.385189
H        -0.097040   -1.948126    0.353676
H        -2.509783   -2.350991    0.307873
H        -4.079359   -0.473000   -0.057563
C         1.251123    0.383669    0.094220
C         1.777273    0.038059    1.490844
H         1.533430   -0.984998    1.766550
H         1.329602    0.709750    2.223566
H         2.860670    0.150744    1.531068
C         1.683477    1.791823   -0.297850
H         1.335473    2.054564   -1.295323
H         2.770994    1.860945   -0.290842
H         1.299995    2.521827    0.414511
