16
0 1
C         2.283900   -0.266817   -0.102445
C         1.811096    1.033281   -0.132047
C         0.453495    1.279836   -0.007182
C        -0.443911    0.234942    0.156663
C         0.038911   -1.067853    0.184977
C         1.393029   -1.317255    0.053292
H        -0.659591   -1.885748    0.303481
H         1.757029   -2.336106    0.076011
H         3.342954   -0.462752   -0.204869
H         2.499127    1.858469   -0.260587
H         0.085787    2.298440   -0.042068
C        -1.915836    0.506087    0.321976
O        -2.740401   -0.425590   -0.352355
H        -2.137125    1.530392    0.003861
H        -2.196664    0.426879    1.373589
H        -2.492406   -0.438184   -1.281981
