11
0 2
C        -0.607606    0.092566   -0.000002
C         0.793826   -0.243990   -0.000005
O         1.195042   -1.383327    0.000002
O        -0.895329    1.418458   -0.000001
H        -1.846332    1.567370    0.000001
O         1.655178    0.796666    0.000003
H         1.163948    1.628790    0.000003
C        -1.692480   -0.905830    0.000001
H        -2.329761   -0.802425   -0.884357
H        -2.329758   -0.802425    0.884361
H        -1.259665   -1.902169   -0.000000
