15
0 1
C        -1.202983    1.426513   -0.000000
C        -1.467429    0.070998   -0.000000
C        -0.438193   -0.849654    0.000000
C         0.865981   -0.391581    0.000000
C         1.179605    0.963614   -0.000000
C         0.112206    1.852561   -0.000000
H        -0.645134   -1.909040    0.000000
C         2.594688    1.450922   -0.000000
H         3.135391    1.090609   -0.875858
H         3.135391    1.090610    0.875858
H         2.624547    2.538591   -0.000001
H         0.320746    2.914593   -0.000001
H        -2.016229    2.137407   -0.000000
Cl         2.142277   -1.569457    0.000000
Cl        -3.108039   -0.489544    0.000000
