20
0 1
O         0.497657    1.116617    0.636005
C         1.418867    1.390544   -0.398931
C         2.483947    0.312045   -0.338879
H         1.819656    2.385309   -0.211142
H         0.925646    1.384877   -1.376500
S         1.543542   -1.202018   -0.021641
H         3.190503    0.499448    0.467452
H         3.022687    0.217394   -1.279288
C         0.105312   -0.236204    0.622883
C        -1.145362   -0.479021   -0.199189
H        -0.067028   -0.516684    1.662119
C        -2.371288    0.209764    0.382332
H        -1.313669   -1.557927   -0.258558
H        -0.968195   -0.141910   -1.223608
C        -3.617545   -0.010880   -0.460173
H        -2.167895    1.278073    0.475665
H        -2.543629   -0.159726    1.397489
H        -3.482356    0.380350   -1.470304
H        -4.485101    0.486181   -0.025525
H        -3.852123   -1.073515   -0.547841
