11
0 1
C         1.192912    0.183378   -0.064438
C        -0.186566   -0.489285    0.104443
F         1.306478    1.246839    0.717352
F         1.344850    0.567497   -1.335448
F         2.155950   -0.675554    0.237746
C        -1.356243    0.336676   -0.447193
F        -0.375293   -0.747650    1.404404
F        -0.156096   -1.652527   -0.572759
F        -1.410078    1.522084    0.188714
F        -2.492891   -0.336803   -0.199544
H        -1.256887    0.500413   -1.521066
