20
0 1
C        -1.265487   -0.246890   -0.000001
C        -1.247801    1.077237   -0.000001
C         0.000000   -1.052463    0.000000
C         1.265487   -0.246890    0.000001
H         0.000000   -1.726641   -0.866990
H        -0.000000   -1.726640    0.866992
C         1.247801    1.077237    0.000000
C         0.000000    1.899215   -0.000000
H        -0.000001    2.570263    0.867570
H         0.000001    2.570263   -0.867570
H         2.188632    1.617966    0.000001
H        -2.188632    1.617966   -0.000002
C        -2.536002   -1.036777   -0.000001
H        -3.411244   -0.388749   -0.000003
H        -2.591155   -1.687258    0.877055
H        -2.591152   -1.687260   -0.877055
C         2.536002   -1.036777    0.000001
H         2.591154   -1.687259   -0.877054
H         2.591153   -1.687259    0.877056
H         3.411244   -0.388749    0.000002
