24
0 1
C        -0.310629    1.188593   -0.291961
C         0.392683    0.000003   -0.433607
C        -0.310627   -1.188590   -0.291964
C        -1.666892   -1.188903   -0.018241
C        -2.370444   -0.000001    0.121624
C        -1.666894    1.188904   -0.018237
H        -2.189656   -2.132062    0.087368
H         0.212538   -2.131759   -0.397980
C        -3.848779   -0.000003    0.383569
H        -4.151293   -0.882333    0.946984
H        -4.412314   -0.000025   -0.552168
H        -4.151302    0.882348    0.946948
H        -2.189660    2.132061    0.087374
H         0.212535    2.131763   -0.397973
C         1.874789    0.000004   -0.677934
C         2.689011   -0.000003    0.615231
H         2.148931    0.876042   -1.271327
H         2.148931   -0.876028   -1.271337
C         4.187923   -0.000002    0.363969
H         2.409744   -0.873278    1.210057
H         2.409744    0.873266    1.210066
H         4.490994   -0.880611   -0.205803
H         4.748961   -0.000007    1.298884
H         4.490994    0.880613   -0.205793
