12
0 2
C         0.332960    0.000000    0.000001
C        -1.040507    0.000003    0.000001
C        -2.254192    0.000002   -0.000004
H        -3.316203   -0.000004   -0.000023
C         1.099701    1.280504    0.000017
H         1.751582    1.341946   -0.877308
H         1.751689    1.341860    0.877266
H         0.441858    2.146267    0.000097
C         1.099697   -1.280507   -0.000013
H         1.751710   -1.341852   -0.877244
H         0.441851   -2.146267   -0.000124
H         1.751552   -1.341964    0.877330
