10
0 2
C         1.321876   -0.139190   -0.027334
C         0.003000    0.537647   -0.239086
F         1.216773   -1.447227   -0.240038
F         1.766334    0.047817    1.222251
F         2.240525    0.360611   -0.854394
C        -1.328560   -0.122680   -0.028728
F         0.028046    1.839158   -0.055562
F        -1.467007   -1.183215   -0.820848
F        -2.304239    0.740427   -0.291873
F        -1.477977   -0.541422    1.237229
