8
0 2
C        -1.962799   -0.013245    0.042763
O        -0.795053   -0.719735   -0.078468
H        -2.837246   -0.630844   -0.057084
H        -1.944270    1.047463   -0.151027
C         0.360637   -0.027933   -0.001724
F         0.440583    0.920861   -0.941733
F         1.357802   -0.876718   -0.171972
F         0.507717    0.576783    1.179219
