17
0 1
C        -0.065385    0.938746   -0.524624
C        -1.129445    0.038389    0.053559
C         1.297449    0.572816   -0.001467
H        -0.097283    0.860583   -1.610757
H        -0.288690    1.966897   -0.246320
O        -0.944610   -0.826067    0.861204
O         1.869329    1.155334    0.875013
O         1.790029   -0.487688   -0.642676
O        -2.326880    0.343579   -0.453291
C        -3.422906   -0.432080    0.037390
H        -4.303131   -0.052423   -0.471412
H        -3.520086   -0.311194    1.114578
H        -3.272772   -1.485772   -0.189705
C         3.042596   -0.975742   -0.160204
H         3.283625   -1.833583   -0.779810
H         2.952032   -1.269863    0.883610
H         3.809504   -0.208683   -0.250118
