24
0 2
C         1.689650   -0.853646    0.639089
C        -0.824856   -0.535924    0.298794
O        -1.017576   -0.065970    1.399479
O        -1.801420   -0.713103   -0.612081
N         2.616119    0.192782    0.215968
C        -3.119408   -0.293600   -0.233470
C         3.239264   -0.048724   -1.064577
H         2.550981    0.042685   -1.919477
H         3.674487   -1.048587   -1.082081
H         4.044687    0.671165   -1.215143
C         2.068388    1.528037    0.324936
H         1.623440    1.664839    1.309587
H         1.297412    1.749948   -0.429138
H         2.870793    2.256918    0.204585
C         0.461401   -0.969342   -0.194381
H         0.511812   -1.320151   -1.216056
H         2.235063   -1.801115    0.619282
H         1.398463   -0.654935    1.669563
C        -3.312907    1.187107   -0.461731
H        -3.286764   -0.554908    0.810184
H        -3.784370   -0.882033   -0.862615
H        -2.650209    1.764926    0.180184
H        -4.341790    1.465388   -0.229962
H        -3.114067    1.445513   -1.501832
