22
0 1
C        -1.857979    0.145157    0.000002
N        -2.869989    0.679208   -0.000000
C         0.564319    0.549346   -0.000002
C         1.857980   -0.145162   -0.000004
N         2.870003   -0.679187   -0.000010
C        -0.564320   -0.549353    0.000005
C         0.494439    1.437908   -1.249285
H         1.264067    2.205532   -1.195843
H        -0.477013    1.928495   -1.298130
H         0.650722    0.872446   -2.164082
C         0.494447    1.437917    1.249275
H         0.650733    0.872462    2.164074
H        -0.477005    1.928506    1.298121
H         1.264075    2.205540    1.195823
C        -0.494447   -1.437912    1.249290
H        -0.650724   -0.872447    2.164085
H         0.477001   -1.928507    1.298136
H        -1.264081   -2.205530    1.195850
C        -0.494449   -1.437923   -1.249272
H        -0.650730   -0.872468   -2.164073
H        -1.264081   -2.205542   -1.195823
H         0.477000   -1.928518   -1.298116
