11
0 2
C         1.078597   -0.000008   -0.000006
N         2.237257   -0.000003   -0.000001
C        -0.307515   -0.000000   -0.000002
C        -1.056371   -1.287096    0.000003
H        -1.706887   -1.350901   -0.877436
H        -1.706876   -1.350902    0.877449
H        -0.391719   -2.147277   -0.000002
C        -1.056358    1.287103    0.000002
H        -1.706877    1.350912   -0.877434
H        -0.391696    2.147277   -0.000008
H        -1.706858    1.350918    0.877451
