26
0 1
C         2.821141    1.488867    0.217472
C         1.480509    1.173173    0.080621
C         3.775366    0.486999    0.180508
C         3.387824   -0.832644    0.003147
C         2.050729   -1.146377   -0.137225
C         1.083739   -0.147114   -0.098356
H         0.746789    1.965851    0.110796
H         3.120826    2.519251    0.353947
C        -1.410711    0.529582   -0.174547
C        -2.842364    0.010174   -0.182444
H         4.823193    0.733953    0.289753
C        -0.349609   -0.544935   -0.260205
H         1.726286   -2.167524   -0.279986
H         4.132763   -1.616578   -0.025993
O        -0.639347   -1.698489   -0.474764
H        -1.235897    1.135025    0.719700
H        -1.247186    1.203553   -1.022319
C        -3.181868   -0.699434    1.122447
H        -4.201485   -1.086097    1.099063
H        -3.110029   -0.007906    1.966416
H        -2.510410   -1.536517    1.304424
C        -3.815040    1.151846   -0.448612
H        -2.924116   -0.716481   -0.993408
H        -3.611571    1.636981   -1.404814
H        -3.748850    1.913133    0.332944
H        -4.843837    0.790448   -0.469243
