18
0 1
C        -0.113656   -1.189802    0.540439
C        -1.252625   -0.773359   -0.404604
C        -1.252733    0.773275   -0.404567
H        -2.208831   -1.183992   -0.082487
H        -1.075920   -1.154250   -1.410504
C        -0.113684    1.189851    0.540339
H        -2.208947    1.183742   -0.082261
H        -1.076264    1.154249   -1.410476
C         0.850347    0.000035    0.546052
H        -0.503704    1.341358    1.549099
H         0.366738    2.121141    0.237685
H         1.464097    0.000080    1.449411
C         1.772759   -0.000002   -0.666838
H         0.366796   -2.121130    0.237952
H        -0.503752   -1.341164    1.549193
H         1.207634   -0.000016   -1.600868
H         2.414850   -0.882113   -0.670816
H         2.414861    0.882101   -0.670854
