15
0 2
C         1.140253    1.225978    0.638996
C         0.654106    0.279669   -0.447438
C        -0.725507   -0.245495   -0.207478
C        -1.928031    0.598474   -0.379325
O        -0.823423   -1.165623    0.795305
H         0.044600   -1.585785    0.882528
H        -2.082319    1.270611    0.476273
H        -2.822956   -0.018571   -0.467056
H        -1.842015    1.213323   -1.275275
H         1.119463    0.729412    1.609004
H         0.501750    2.107826    0.688380
H         2.161509    1.543716    0.432244
O         1.578134   -0.814409   -0.463622
H         0.671291    0.802206   -1.409643
H         1.366069   -1.374249   -1.218451
