35
0 2
C        -1.438833    0.094455    0.008441
C        -0.650410    1.261496   -0.094528
C         0.726640    1.261410   -0.167384
C         1.404708    0.037375   -0.121079
C         0.645598   -1.116798    0.025529
C        -0.735428   -1.136012    0.097392
H         1.159338   -2.066220    0.112282
H        -1.153737    2.215992   -0.158424
C        -2.860547    0.229606    0.022922
C        -3.497423    1.540563    0.356756
H        -4.501033    1.379252    0.754345
H        -3.614017    2.177885   -0.529448
H        -2.931358    2.107735    1.094234
C        -3.815867   -0.823333   -0.436814
H        -4.322941   -1.322944    0.396807
H        -3.349102   -1.588395   -1.048477
H        -4.603989   -0.358281   -1.035558
C        -1.399787   -2.460909    0.356129
H        -0.678800   -3.156495    0.783423
H        -1.788708   -2.920928   -0.553709
H        -2.229174   -2.369561    1.055095
C         1.456981    2.569233   -0.301134
H         0.757047    3.402310   -0.265498
H         2.000774    2.633901   -1.245550
H         2.185340    2.712668    0.498479
C         2.915813   -0.030779   -0.150431
C         3.456507   -1.199637   -0.968782
H         3.228547   -2.159775   -0.504651
H         4.542064   -1.130402   -1.051517
H         3.037731   -1.206125   -1.975255
C         3.479241   -0.061619    1.271982
H         3.277600    0.882103   -0.625769
H         3.135852    0.793522    1.854616
H         4.570640   -0.050806    1.260282
H         3.154777   -0.965740    1.790299
