19
0 2
C        -3.156141    0.232190    0.045453
C        -1.845023   -0.534203   -0.028170
H        -3.249084    0.931372   -0.787843
H        -3.220753    0.811067    0.968781
H        -4.015192   -0.438660    0.013329
C        -0.624291    0.371435    0.014517
H        -1.819263   -1.129680   -0.945558
H        -1.791449   -1.248957    0.798317
C         0.693935   -0.385861   -0.058802
H        -0.645289    0.967492    0.931789
H        -0.674234    1.085524   -0.813634
C         1.895737    0.483136   -0.033185
H         0.699701   -1.003876   -0.971628
H         0.747697   -1.110687    0.764388
C         3.254949   -0.098669    0.067546
H         1.783658    1.533620   -0.271936
H         3.317783   -0.830106    0.879551
H         4.015201    0.662723    0.238590
H         3.536234   -0.637998   -0.848303
