9
0 1
N         0.999357   -0.410611    0.000001
C         0.700676    0.903923    0.000002
C        -0.666943    0.987155   -0.000005
C        -1.101021   -0.350930    0.000004
N        -0.084369   -1.191860   -0.000002
H         1.909097   -0.835453    0.000002
H         1.465180    1.661668    0.000003
H        -1.265675    1.880490   -0.000009
H        -2.109789   -0.730298    0.000006
