16
0 1
C         2.607332   -1.065275    0.000009
O         3.741575   -0.672502    0.000001
C         1.422760   -0.177502    0.000002
H         2.378569   -2.148192    0.000022
C         1.578444    1.205207   -0.000004
C         0.470532    2.029168   -0.000008
C        -0.802916    1.481930   -0.000007
C        -0.935912    0.108251   -0.000001
C         0.155824   -0.735103    0.000004
H         2.580999    1.611118   -0.000005
H         0.590514    3.103409   -0.000013
H         0.008708   -1.805837    0.000009
H        -1.687591    2.100224   -0.000010
N        -2.285697   -0.477622    0.000001
O        -2.370164   -1.686319    0.000001
O        -3.227375    0.284142    0.000001
