14
0 1
C         1.448730    0.040369    0.095367
C         0.000004    0.000003   -0.373178
H         1.957266    0.937233   -0.261817
H         2.006404   -0.826833   -0.261731
H         1.499906    0.041850    1.187127
C        -0.759327    1.234449    0.095375
C        -0.689404   -1.274816    0.095357
H         0.000009    0.000011   -1.468237
H        -0.713765   -1.319876    1.187119
H        -0.166935   -2.163647   -0.261797
H        -1.719239   -1.324199   -0.261797
H        -0.786130    1.278055    1.187135
H        -1.790323    1.226354   -0.261740
H        -0.287214    2.151021   -0.261782
