21
0 1
C        -2.583268    0.000000   -0.227063
S        -0.883132   -0.000000    0.522495
F        -2.750546    1.079515   -0.986662
F        -3.483644   -0.000000    0.738086
F        -2.750546   -1.079514   -0.986662
O        -0.756476   -1.247604    1.203864
O        -0.756476    1.247604    1.203864
C         1.584356    0.000000   -0.557841
C         2.254684   -1.199377   -0.361251
C         2.254685    1.199377   -0.361251
C         3.585253    1.198821    0.015867
C         4.252325    0.000000    0.203683
C         3.585253   -1.198821    0.015867
H         4.101484   -2.137290    0.165741
H         1.729564   -2.135896   -0.496214
H         1.729564    2.135896   -0.496214
H         4.101484    2.137290    0.165741
H         5.293126   -0.000000    0.498384
C         0.136630    0.000000   -0.948445
H        -0.139177    0.890896   -1.509718
H        -0.139177   -0.890896   -1.509718
