10
0 2
C         1.877426   -0.643963    0.164423
C         1.113372    0.576853   -0.358883
H         1.299544   -1.554537    0.008740
H         2.079689   -0.550620    1.231704
H         2.829854   -0.751878   -0.355234
C        -0.200109    0.784405    0.291273
H         0.970587    0.473048   -1.438045
H         1.711275    1.477455   -0.202265
H        -0.347814    1.399048    1.165564
Cl        -1.487486   -0.282134   -0.058314
