20
0 2
C        -2.168309   -0.517096    1.526434
S        -1.942182    0.013878   -0.149554
H        -2.264873    0.354010    2.169220
H        -1.326640   -1.136776    1.826151
H        -3.088650   -1.099146    1.536438
O        -2.992078    0.941522   -0.458600
O        -1.764715   -1.168306   -0.947511
C         0.848990    0.429503   -0.070471
C         1.169373   -0.947339   -0.132489
C         1.917093    1.351458    0.045828
C         3.220446    0.922959    0.109422
C         3.511615   -0.436137    0.057539
C         2.479762   -1.359757   -0.065773
H         2.707704   -2.415896   -0.118819
H         0.377575   -1.668812   -0.264855
H         1.689623    2.408737    0.086637
H         4.020787    1.645053    0.199085
H         4.538208   -0.772927    0.106135
C        -0.460233    0.935757   -0.107824
H        -0.636905    2.001892   -0.074244
