27
0 1
C         0.398107    0.552932    0.378552
O        -0.424196   -0.272221   -0.418749
C         0.247032    1.970277   -0.001962
N         0.130471    3.069960   -0.292477
C        -1.773460   -0.299554   -0.187798
C         1.820822    0.081457    0.222412
H         0.106810    0.463938    1.428839
C         2.349135   -0.788241    1.162956
C         3.869800   -0.026908   -1.019015
C         4.395924   -0.896876   -0.078020
C         3.635063   -1.277207    1.014091
C         2.585380    0.463159   -0.869164
H         2.177305    1.149107   -1.599930
H         4.463741    0.274722   -1.871075
H         5.402419   -1.275847   -0.194660
H         1.751011   -1.087431    2.014609
H         4.043333   -1.953766    1.752600
C        -2.436576    0.534794    0.696641
C        -2.476326   -1.248642   -0.918210
C        -3.840639   -1.365019   -0.756521
C        -4.517313   -0.540196    0.131675
C        -3.810427    0.403339    0.849490
H        -4.325768    1.059931    1.537655
H        -1.917438    1.300303    1.252971
H        -1.930949   -1.883142   -1.602895
H        -4.382107   -2.107233   -1.327827
H        -5.587223   -0.632430    0.256295
