9
0 1
C        -0.082199    0.545654   -0.000000
O        -1.146028   -0.393585    0.000002
H        -1.983746    0.076257   -0.000004
C         1.215832   -0.221627   -0.000001
H        -0.138916    1.189691    0.885073
H        -0.138917    1.189689   -0.885075
H         1.281434   -0.856798    0.883246
H         2.065129    0.462479   -0.000001
H         1.281434   -0.856799   -0.883246
