20
0 1
C        -1.464247    0.349003   -0.397049
C        -0.244209   -0.425813    0.043208
O        -0.257692   -1.480264    0.617832
O         0.885777    0.227995   -0.259262
C         2.110559   -0.385484    0.166992
C         3.242652    0.509143   -0.263334
H         4.194490    0.074910    0.043152
H         3.153114    1.495475    0.191212
H         3.252786    0.629107   -1.346333
C        -1.700829    1.502079    0.580656
H        -1.910025    1.118860    1.580696
H        -2.558928    2.093105    0.260856
H        -0.834339    2.159353    0.636598
C        -2.676438   -0.560047   -0.504079
H        -1.229889    0.775612   -1.374712
H        -2.904318   -1.011254    0.460788
H        -2.507005   -1.369011   -1.213762
H        -3.544672    0.010763   -0.834164
H         2.179678   -1.377163   -0.280372
H         2.079504   -0.514886    1.249115
