11
0 1
C         0.459032    0.173831    0.000007
O        -0.546080   -0.714317    0.000003
C        -1.861499   -0.160967   -0.000001
H        -2.539344   -1.008979   -0.000004
H        -2.016998    0.452930   -0.885431
H        -2.017003    0.452929    0.885428
O         0.284609    1.360738   -0.000005
C         1.790698   -0.512412   -0.000001
H         1.877203   -1.151014   -0.878444
H         1.877233   -1.150967    0.878474
H         2.581293    0.231021   -0.000033
