8
0 1
C         1.600127   -0.353945   -0.000000
C         0.477924    0.653934   -0.000000
H         2.559689    0.166812   -0.000000
H         1.553563   -0.989510   -0.883137
H         1.553564   -0.989509    0.883137
H         0.501172    1.285972   -0.883624
H         0.501172    1.285973    0.883623
Cl        -1.125733   -0.150569    0.000000
