20
0 1
C        -1.229553    0.375619   -0.044885
O        -1.936041    0.809375   -0.908993
O        -1.467733   -0.766798    0.606824
C        -2.620380   -1.496404    0.186019
C         0.023887    1.043110    0.482118
C         1.197312    0.086849    0.461748
O         1.968086   -0.072209    1.364745
O         1.299381   -0.528905   -0.720423
C         2.393318   -1.435411   -0.859959
H        -2.651637   -2.384402    0.809273
H        -2.532663   -1.767515   -0.864517
H        -3.519641   -0.899115    0.324554
H         2.316911   -1.838051   -1.864956
H         2.320764   -2.230903   -0.120659
H         3.338491   -0.912411   -0.726885
C         0.349884    2.315352   -0.289435
H        -0.147862    1.270605    1.534556
H         0.530442    2.092160   -1.338913
H         1.233844    2.793021    0.130888
H        -0.485012    3.010211   -0.234190
