18
0 1
C         1.236943   -1.391280   -0.000000
C         2.413812   -0.704536   -0.000000
C         2.413812    0.704536   -0.000000
C         1.236943    1.391280   -0.000000
C        -0.000000    0.707970   -0.000000
C         0.000000   -0.707970   -0.000000
C        -1.236943   -1.391280   -0.000000
C        -2.413812   -0.704536   -0.000000
C        -2.413812    0.704536    0.000000
C        -1.236943    1.391280    0.000000
H        -1.233162    2.474183    0.000000
H        -3.354553    1.238875    0.000000
H        -1.233162   -2.474183    0.000000
H        -3.354553   -1.238875    0.000000
H         1.233162   -2.474183   -0.000000
H         3.354553   -1.238875   -0.000000
H         3.354553    1.238875    0.000000
H         1.233162    2.474183    0.000000
