17
0 2
C         2.505325   -0.735856   -0.000001
O         2.595420   -1.910085   -0.000001
C         1.286549    0.097028   -0.000000
C         1.407298    1.473556   -0.000000
C         0.256473    2.249602    0.000000
C        -0.984343    1.652530    0.000000
C        -1.103171    0.261462    0.000000
C         0.035313   -0.522562   -0.000000
H         2.390060    1.923150   -0.000000
H         0.329714    3.328564    0.000001
H        -0.008198   -1.600881   -0.000001
H        -1.891124    2.241968    0.000001
O        -2.365075   -0.222350    0.000000
C        -2.543053   -1.623248    0.000001
H        -2.104766   -2.078581   -0.891254
H        -3.616038   -1.791241    0.000002
H        -2.104765   -2.078580    0.891256
