21
0 2
C        -0.374011   -1.379665    0.168787
C        -1.785878   -1.052920   -0.307588
C        -2.240191    0.306390    0.207460
H        -2.475234   -1.834590    0.016111
H        -1.805280   -1.045465   -1.400948
C        -1.277036    1.402482   -0.227743
H        -2.292591    0.281668    1.301243
H        -3.247626    0.529228   -0.149268
C         0.148957    1.126196    0.245882
H        -1.605421    2.372456    0.149664
H        -1.282400    1.468558   -1.319226
C         0.574900   -0.264017   -0.093496
H         0.195471    1.263937    1.340513
H         0.826538    1.866785   -0.180948
H         0.000289   -2.289941   -0.302627
H        -0.399609   -1.585072    1.251833
O         1.868986   -0.644938    0.115468
C         2.889863    0.290099   -0.153342
H         2.796769    0.693152   -1.165360
H         3.831302   -0.247220   -0.067578
H         2.886277    1.114612    0.563089
