10
0 2
C        -1.396120    1.468914    0.086018
S        -0.863680   -0.169875   -0.019007
H        -1.180914    2.140720   -0.730939
H        -1.982896    1.753741    0.945402
C         0.981579    0.029943    0.015458
F         1.546402   -1.156258   -0.113960
F         1.362487    0.579849    1.161779
F         1.369694    0.816548   -0.984632
O        -1.167863   -0.682640   -1.315346
O        -1.211799   -0.858717    1.179360
