14
0 1
C        -1.343657    0.000000    0.170674
O        -0.709183    1.162774   -0.271463
C         0.623709    1.235557    0.204787
C         1.400700   -0.000000   -0.215728
H         0.614423    1.323120    1.300445
H         1.052419    2.147525   -0.205989
C         0.623709   -1.235557    0.204787
H         2.393493   -0.000000    0.239140
H         1.521386   -0.000000   -1.300062
O        -0.709183   -1.162774   -0.271463
H         0.614422   -1.323120    1.300445
H         1.052418   -2.147525   -0.205989
H        -2.347575    0.000000   -0.245063
H        -1.380829    0.000000    1.273350
