17
0 2
C         2.915808   -0.548891   -0.000004
O         3.830578    0.195777   -0.000004
C         1.480406   -0.252304   -0.000003
C         1.022378    1.069506   -0.000000
C        -0.322536    1.333743    0.000002
C        -1.241616    0.280803    0.000001
C        -0.796573   -1.036303   -0.000001
C         0.563404   -1.289896   -0.000003
H         1.743090    1.876112    0.000000
H        -0.701393    2.346337    0.000004
H         0.925273   -2.309426   -0.000005
O        -2.538431    0.639847    0.000003
C        -3.525766   -0.371219    0.000007
H        -3.450767   -0.997108    0.891918
H        -3.450776   -0.997107   -0.891905
H        -4.482119    0.143208    0.000012
H        -1.493504   -1.859653   -0.000002
