15
0 2
C        -2.582977    0.026346    0.000001
C        -1.274959   -0.655054   -0.000001
H        -3.173802   -0.262519    0.874717
H        -3.173806   -0.262523   -0.874712
H        -2.450928    1.105695   -0.000002
C        -0.030161    0.065292   -0.000002
H        -1.241641   -1.738793    0.000000
O        -0.006903    1.290286    0.000001
C         1.247624   -0.749998   -0.000002
C         2.503735    0.097768    0.000002
H         1.223875   -1.412772   -0.870378
H         1.223873   -1.412777    0.870369
H         2.537543    0.743792   -0.876017
H         3.393000   -0.532297    0.000001
H         2.537541    0.743787    0.876025
