9
0 2
C        -0.678881    0.501439   -0.000006
C         0.618742    0.155905   -0.000002
C         1.867802   -0.176383    0.000002
H         2.419040   -0.324054    0.924442
H         2.419034   -0.324096   -0.924436
C        -1.742071   -0.387077    0.000005
H        -1.576138   -1.454491    0.000019
H        -2.759375   -0.026491    0.000000
H        -0.896116    1.565832   -0.000020
