22
0 1
C         2.281066    0.000001    0.156434
C         1.531259    1.256639   -0.267911
C         0.100088    1.256360    0.254842
H         1.514269    1.313076   -1.361229
H         2.055978    2.148340    0.080733
C        -0.666115   -0.000001   -0.170843
H        -0.433545    2.143740   -0.090584
H         0.113450    1.306256    1.349321
C         1.531261   -1.256639   -0.267912
H         2.395189    0.000000    1.245520
H         3.289117    0.000001   -0.262825
C         0.100089   -1.256360    0.254841
H         2.055980   -2.148339    0.080731
H         1.514271   -1.313074   -1.361230
H        -0.433543   -2.143741   -0.090585
H         0.113451   -1.306257    1.349321
C        -2.053000   -0.000001    0.386765
H        -0.737284   -0.000000   -1.264421
C        -3.165464    0.000001   -0.326079
H        -2.120580   -0.000004    1.472677
H        -3.140796    0.000003   -1.409740
H        -4.141063    0.000000    0.141492
