11
0 2
N        -1.166860    1.051534   -0.000001
C        -1.222316   -0.344222   -0.000019
N         0.019881   -0.926912   -0.000003
C         1.277449   -0.305994    0.000002
C         1.222437    1.157475   -0.000002
C         0.012912    1.687474    0.000002
H         2.145368    1.713013    0.000001
O         2.282291   -0.970388    0.000009
O        -2.261749   -0.948453    0.000006
H        -2.051519    1.533712    0.000007
H         0.027779   -1.936739    0.000005
