20
0 1
C         2.377694   -1.051874   -0.065680
C         1.094107   -1.186768    0.438100
C         2.839399    0.190138   -0.463543
C         2.011305    1.295937   -0.353606
C         0.730838    1.158743    0.150380
C         0.258540   -0.085210    0.553435
H         0.739133   -2.161167    0.750746
H         3.018046   -1.920439   -0.145164
C        -2.162218    0.072574   -0.013345
O        -2.769058    1.112501   -0.036486
C        -2.348080   -0.987076   -1.064130
H        -2.819780   -1.863470   -0.613963
H        -1.383106   -1.307190   -1.458744
H        -2.976472   -0.610298   -1.866236
H         3.841502    0.297910   -0.856444
C        -1.149040   -0.220479    1.079547
H        -1.302748   -1.232294    1.458057
H        -1.328415    0.486869    1.887930
H         0.083753    2.023366    0.230644
H         2.365282    2.270789   -0.661881
