10
0 1
C        -1.460634   -0.111517   -0.000001
C        -2.615959   -0.408088    0.000019
H        -3.646312   -0.671630    0.000009
C        -0.073537    0.305236    0.000000
O         0.282572    1.449716   -0.000008
O         0.746960   -0.744879    0.000001
C         2.142361   -0.430806   -0.000006
H         2.400359    0.145278    0.886571
H         2.400352    0.145272   -0.886588
H         2.655958   -1.386566   -0.000005
