13
0 2
C         0.003070   -1.279826    0.461106
S         1.570453   -0.741886   -0.290651
C         1.305568    0.974176    0.184095
S        -0.455191    1.361046   -0.021804
H         1.887000    1.619724   -0.469268
H         1.598882    1.147187    1.217474
C        -1.033419   -0.247051    0.191178
C        -2.418073   -0.597755   -0.219833
H        -2.434702   -1.062719   -1.214115
H        -3.062251    0.279848   -0.259948
H        -2.870131   -1.308295    0.476059
H         0.161764   -1.440579    1.532027
H        -0.267628   -2.238993    0.017780
