20
0 2
C        -0.083870   -0.247631   -0.000002
C        -0.584936    1.074005   -0.000002
C        -1.940393    1.318616    0.000000
C        -2.849868    0.268082    0.000002
C        -2.381402   -1.042317    0.000002
C        -1.030704   -1.297871   -0.000000
H        -0.672011   -2.319668   -0.000001
H        -3.083779   -1.865687    0.000003
H         0.106691    1.905125   -0.000003
H        -2.299145    2.339802    0.000000
C         1.293097   -0.531436   -0.000004
C         2.372224    0.494247   -0.000006
H        -3.912848    0.467214    0.000004
H         1.589533   -1.574380   -0.000006
C         3.768139   -0.110628    0.000009
H         2.258557    1.151905    0.870172
H         2.258569    1.151889   -0.870197
H         3.922761   -0.735041    0.881228
H         4.535189    0.663491    0.000006
H         3.922772   -0.735058   -0.881197
