19
0 1
C        -0.159946   -0.410784   -0.379759
C        -1.458872   -0.102509   -0.029317
C        -1.824126    1.185186    0.323026
C        -0.857389    2.173370    0.326104
C         0.451721    1.875104   -0.014827
C         0.806922    0.585033   -0.374717
C         2.220924    0.256333   -0.788613
O         2.667136   -0.996285   -0.333723
H        -1.127587    3.182721    0.606131
H         1.204804    2.652964    0.003332
H        -2.847231    1.402072    0.593750
H         0.108536   -1.423093   -0.646972
H         2.895399    1.051570   -0.447257
H         2.284425    0.214088   -1.877282
C         2.899840   -1.039916    1.054420
H         3.651398   -0.298252    1.348848
H         3.272047   -2.035028    1.286579
H         1.985210   -0.857873    1.626768
Cl        -2.661090   -1.355870   -0.030707
