11
0 1
C         1.394978   -0.904617   -0.000001
S        -0.000000    0.187185    0.000000
H         1.380986   -1.515438    0.899173
H         2.272865   -0.261526   -0.000001
H         1.380986   -1.515435   -0.899178
C        -1.394975   -0.904622   -0.000001
H        -2.272864   -0.261533   -0.000000
H        -1.380980   -1.515442    0.899173
H        -1.380980   -1.515439   -0.899178
O        -0.000002    0.902832   -1.243853
O        -0.000002    0.902828    1.243856
