20
0 2
C        -1.314579    1.418911    0.228549
C        -0.872641    0.191659    1.019085
N        -0.560046   -0.968493    0.215090
H        -1.672330   -0.068780    1.720214
H        -0.000948    0.446549    1.618219
O        -0.399834    1.804527   -0.762269
H        -1.493322    2.227873    0.949637
H        -2.264546    1.223603   -0.273694
H         0.503971    1.626732   -0.451907
C        -1.640653   -1.511469   -0.569952
H        -1.815428   -0.937434   -1.486507
H        -2.559288   -1.514465    0.017817
H        -1.410525   -2.539762   -0.845813
C         0.724234   -1.286612   -0.152925
C         1.915793   -0.604531    0.364748
H         0.820770   -2.090246   -0.865864
O         2.151491    0.719786   -0.198746
H         2.792408   -1.225595    0.175063
H         1.877378   -0.417041    1.438794
H         2.256007    0.605779   -1.150510
