14
0 1
C        -2.769160   -0.379975   -0.045793
C        -1.432415    0.289378   -0.069311
H        -3.509198    0.302368   -0.453498
H        -3.042989   -0.692353    0.958910
H        -2.714875   -1.265639   -0.679417
O        -1.060813    1.148411   -0.799016
O        -0.648216   -0.277289    0.907101
C         1.432415   -0.289377   -0.069315
O         1.060812   -1.148404   -0.799027
C         2.769160    0.379975   -0.045793
H         2.714875    1.265643   -0.679411
H         3.509198   -0.302365   -0.453502
H         3.042989    0.692347    0.958912
O         0.648217    0.277281    0.907103
