18
0 2
C         0.307516   -0.971664   -0.000001
C        -1.057560   -1.140127   -0.000002
C        -1.892726   -0.031623   -0.000001
C        -1.363202    1.253630    0.000001
C        -0.001165    1.426957    0.000001
C         0.876832    0.320745    0.000001
C         2.261365    0.522542    0.000001
O         3.092993   -0.533120    0.000001
H        -2.027342    2.106209    0.000001
H         0.408931    2.428937    0.000002
H         0.958932   -1.833332   -0.000001
H         2.704314    1.510797    0.000002
C         4.473316   -0.226818    0.000002
H         4.743427    0.343135   -0.892245
H         5.007328   -1.172778   -0.000001
H         4.743426    0.343129    0.892253
Cl        -3.613033   -0.250070   -0.000002
H        -1.487667   -2.131797   -0.000003
