18
0 1
C         0.740442   -1.373194   -0.000002
C         1.945385   -0.690849   -0.000001
C         1.945385    0.690849    0.000001
C         0.740442    1.373194    0.000002
C        -0.472395    0.699660    0.000001
C        -0.472395   -0.699660   -0.000001
H         0.739332    2.456417    0.000004
H         2.878194    1.239018    0.000001
C        -1.763189    1.464807    0.000002
H        -1.580284    2.537858    0.000014
H        -2.369354    1.227225    0.876656
H        -2.369345    1.227243   -0.876662
H         0.739332   -2.456417   -0.000004
H         2.878194   -1.239018   -0.000002
C        -1.763189   -1.464807   -0.000001
H        -2.369356   -1.227223   -0.876653
H        -2.369343   -1.227245    0.876665
H        -1.580284   -2.537858   -0.000016
