23
0 2
C         0.695502   -0.318125    0.034834
C         2.014297    0.074970   -0.032314
C         2.353546    1.428998   -0.061912
C         1.353251    2.378497   -0.030902
C         0.026476    2.006395    0.033735
C        -0.339210    0.644742    0.071334
H         0.437732   -1.358539    0.074541
H         1.611468    3.428400   -0.059283
H        -0.729906    2.774008    0.041145
C        -1.730153    0.334732    0.093156
C        -2.802543    1.364583    0.095414
H        -3.748800    0.924934    0.391704
H        -2.943967    1.796772   -0.898987
H        -2.554552    2.172741    0.780199
N        -2.209780   -1.014685    0.001398
O        -3.321799   -1.171338   -0.482424
O        -1.519672   -1.939566    0.406832
H         3.398038    1.703378   -0.109588
O         3.054199   -0.787168   -0.068531
C         2.780501   -2.173289   -0.035488
H         2.258376   -2.452755    0.882244
H         3.745573   -2.670365   -0.069278
H         2.182685   -2.480228   -0.896632
