20
0 1
C         1.926836   -1.188699    0.016834
C         0.545938   -1.198074   -0.033428
C         2.635038   -0.000001    0.040015
C         1.926838    1.188699    0.016835
C         0.545940    1.198077   -0.033427
C        -0.180778    0.000002   -0.073026
H         0.033824   -2.147384   -0.042549
H         2.454886   -2.133364    0.043170
H         3.715216   -0.000002    0.081600
H         2.454890    2.133363    0.043172
H         0.033828    2.147387   -0.042547
N        -1.560419    0.000000   -0.154620
C        -2.274953    1.234342    0.061264
H        -2.104457    1.655970    1.060282
H        -3.340273    1.053095   -0.054998
H        -1.989875    1.987547   -0.674531
C        -2.274947   -1.234344    0.061265
H        -3.340268   -1.053103   -0.054998
H        -2.104450   -1.655969    1.060284
H        -1.989864   -1.987549   -0.674528
