13
0 1
N         0.984380   -0.721959    0.576309
N         1.831234   -0.002860   -0.226969
O         1.903348    1.191389   -0.016894
O         2.445325   -0.628958   -1.055664
C        -0.000003   -0.000343    1.340363
H         0.739754   -1.602587    0.146063
N        -0.984379    0.721663    0.576678
H         0.498538    0.731429    1.967595
H        -0.498541   -0.732438    1.967222
N        -1.831234    0.002975   -0.226969
H        -0.739742    1.602507    0.146878
O        -1.903366   -1.191376   -0.017492
O        -2.445306    0.629497   -1.055359
