13
0 2
C        -0.000006   -0.000005   -0.157614
C         0.960588   -1.121185    0.015504
H         1.931351   -0.894170   -0.429056
H         0.587216   -2.045696   -0.428821
C        -1.451273   -0.271295    0.015540
H         1.145006   -1.336223    1.079877
H        -1.729720   -0.323410    1.079916
H        -2.065241    0.514288   -0.428819
H        -1.740065   -1.225529   -0.428968
C         0.490688    1.392477    0.015531
H         1.478006    1.531392   -0.428835
H         0.584772    1.659686    1.079909
H        -0.191303    2.119709   -0.428964
