11
0 1
C         0.000064   -0.000046   -0.542013
N         0.945292    1.058943   -0.042199
N        -1.389705    0.289162   -0.042378
N         0.444431   -1.348119   -0.042042
H         0.000184   -0.000139   -1.624491
O        -0.036627   -2.269527   -0.648995
O        -1.793107   -0.348778    0.889253
O         1.983825    1.102939   -0.649088
O        -1.947078    1.166337   -0.649587
O         0.594246    1.727411    0.889227
O         1.198654   -1.378319    0.889553
