13
0 2
C        -0.000004   -0.000004   -0.157570
C         0.406806    1.419247    0.015531
H        -0.317394    2.104521   -0.428868
H         1.384031    1.616822   -0.428938
C         1.025710   -1.061927    0.015493
H         1.222683   -1.265611    1.079858
H         1.981206   -0.777442   -0.429086
H         0.708126   -2.007062   -0.428820
C        -1.432517   -0.357321    0.015526
H        -2.092228    0.390318   -0.428739
H        -1.707378   -0.426088    1.079895
H        -1.663930   -1.327024   -0.429086
H         0.484916    1.691594    1.079903
