15
0 2
N        -2.646099   -0.192914   -0.293696
N        -1.661969    0.278058    0.102546
C         0.767848   -0.013347   -0.322538
C         1.953729   -0.937889   -0.078113
H         2.220068   -0.956852    0.981207
H         2.827900   -0.595629   -0.632233
H         1.738303   -1.960889   -0.389152
C         1.095139    1.422659    0.061995
H         1.365089    1.485253    1.118991
H         0.247751    2.084942   -0.107968
H         1.939892    1.793121   -0.519358
C        -0.442407   -0.537285    0.433222
H        -0.652413   -1.581532    0.198724
H        -0.299907   -0.427169    1.509389
H         0.523943   -0.042081   -1.388950
