11
0 1
N         0.882790    0.014020    0.000002
O         0.925709    1.226061    0.000001
O         1.847530   -0.718907   -0.000003
C        -0.432632   -0.632199   -0.000002
C        -1.536551    0.048467   -0.743771
C        -1.536550    0.048463    0.743772
H        -2.223768   -0.593905   -1.274389
H        -1.277702    0.973902   -1.236020
H        -0.328111   -1.703741   -0.000004
H        -1.277701    0.973895    1.236026
H        -2.223766   -0.593912    1.274388
