11
0 1
C         0.000005    0.000011    0.393210
N         1.397899   -0.325800   -0.135306
N        -0.981088   -1.047710   -0.135282
N        -0.416809    1.373494   -0.135375
F         0.000019    0.000065    1.689751
O        -1.123133    1.378160   -1.103620
O        -1.999748   -1.125177    0.490120
O         1.755162    0.283521   -1.103552
O        -0.632058   -1.661705   -1.103577
O         1.974274   -1.169324    0.490039
O         0.025476    2.294456    0.489931
