11
0 2
C         0.000000    1.067173   -0.000001
C         1.205341    0.385075   -0.000002
C         1.208482   -1.001928   -0.000000
C        -1.205341    0.385075   -0.000001
C        -1.208482   -1.001928   -0.000004
C         0.000000   -1.631319   -0.000001
F         0.000000    2.392552    0.000001
F         2.345448    1.062800   -0.000001
F         2.361319   -1.659792    0.000002
F        -2.345448    1.062800    0.000001
F        -2.361319   -1.659792    0.000003
