10
0 1
N         0.425344    0.440222    0.000011
C         1.787026   -0.067773   -0.000007
H         2.295673    0.330668   -0.878647
H         2.295686    0.330647    0.878636
H         1.814798   -1.158373   -0.000020
N        -0.425344   -0.440222    0.000010
C        -1.787026    0.067773   -0.000007
H        -2.295686   -0.330649    0.878634
H        -2.295673   -0.330666   -0.878649
H        -1.814798    1.158373   -0.000018
