12
0 2
N         1.878029   -0.177250   -0.278248
N         0.959825   -0.673369    0.224159
C        -0.384232    0.024911    0.424626
C        -0.370953    1.448508   -0.083201
H         0.414828    2.032663    0.392897
H        -1.330681    1.920413    0.128334
H        -0.204598    1.474039   -1.160199
C        -1.433506   -0.851524   -0.226886
H        -0.510804    0.001847    1.508059
H        -1.299462   -0.870314   -1.309220
H        -2.428904   -0.462494   -0.013434
H        -1.373212   -1.873190    0.144958
