14
0 1
C        -1.202419   -1.808031    0.000000
C        -1.210311   -0.425513    0.000000
C        -0.000000   -2.497044    0.000000
C         1.202418   -1.808031   -0.000000
C         1.210310   -0.425513   -0.000000
C        -0.000000    0.239341    0.000000
H         2.129145    0.140077   -0.000000
H        -0.000000   -3.578773    0.000000
H         2.138735   -2.348577   -0.000000
H        -2.138735   -2.348577    0.000000
H        -2.129145    0.140077    0.000000
N         0.000000    1.710607   -0.000000
O        -1.073740    2.273142    0.000000
O         1.073740    2.273141   -0.000000
