16
0 1
N        -0.561713    1.372476   -0.227727
C        -0.483598    0.022631    0.325265
H         0.223277    1.938661    0.064413
H        -1.402744    1.840426    0.084231
H        -0.373926    0.036901    1.421494
C         0.728949   -0.701128   -0.245412
C         2.058141   -0.042403    0.090460
H         0.609911   -0.763557   -1.330196
H         0.725562   -1.724930    0.137504
H         2.147372    0.941428   -0.372072
H         2.894867   -0.641504   -0.269202
C        -1.767582   -0.714459   -0.008305
H        -2.635118   -0.205873    0.416953
H        -1.748626   -1.729697    0.388935
H        -1.902077   -0.764631   -1.089748
H         2.178023    0.077600    1.169738
