16
0 1
C         1.013462    1.862394    0.005772
C        -0.316501    1.479220    0.005190
C         2.025014    0.922337   -0.001398
C         1.734237   -0.442796   -0.008143
C         0.400488   -0.838247   -0.009124
C        -0.584115    0.126104   -0.001979
H         0.122306   -1.881505   -0.018034
H         3.059194    1.243435   -0.005834
H         1.265857    2.913917    0.011975
H        -1.123827    2.193122    0.010823
N        -1.988647   -0.318295    0.001020
O        -2.203858   -1.512008    0.007750
O        -2.849064    0.535001   -0.002644
N         2.745497   -1.382115   -0.063768
H         3.656403   -1.085675    0.240940
H         2.509973   -2.318439    0.216600
