13
0 1
C         0.000002   -0.000001    0.000000
N         0.916189    0.258996   -1.192077
N         0.916227   -0.259086    1.192031
N        -0.916268   -1.192011   -0.259024
O        -0.692590   -2.196002    0.351761
O         0.692575    0.351727    2.196011
O         0.692424   -0.351794   -2.196046
O         1.776925   -1.062095    0.967727
O         1.776970    1.061928   -0.967818
O        -1.777042   -0.967668   -1.061940
N        -0.916142    1.192096    0.259063
O        -1.776890    0.967842    1.062032
O        -0.692378    2.196068   -0.351721
