12
0 1
C         0.856954   -0.643750   -0.000001
N        -0.341903   -0.019411   -0.000001
C        -1.579963   -0.754740    0.000001
H        -2.175968   -0.518588   -0.885280
H        -2.175965   -0.518590    0.885285
H        -1.372713   -1.823353   -0.000000
O         1.935959   -0.097547   -0.000001
C        -0.415536    1.422124    0.000000
H         0.595938    1.817281   -0.000004
H        -0.944498    1.780113    0.886461
H        -0.944506    1.780114   -0.886455
H         0.754626   -1.742527   -0.000001
