14
0 2
C        -0.053333   -0.092474   -0.278940
N        -0.326002    1.273208    0.059719
N         1.300040   -0.539328   -0.080135
C        -1.124967   -1.020574   -0.666032
O         1.418978   -1.631089    0.439807
O        -1.315706    1.757387   -0.457149
O         0.402304    1.819257    0.859257
O         2.193721    0.165194   -0.484948
C        -2.030777   -1.400421    0.514680
H        -0.662147   -1.911839   -1.085338
H        -1.718454   -0.534854   -1.441234
H        -1.457772   -1.903057    1.291343
H        -2.811242   -2.074363    0.165958
H        -2.508559   -0.518223    0.938207
