14
0 1
C        -1.162794   -1.192722    0.003593
C         0.219241   -1.198015   -0.005835
C         0.930179   -0.000000   -0.009567
C        -1.867175    0.000000    0.008343
C        -1.162794    1.192722    0.003593
C         0.219241    1.198015   -0.005835
H        -1.695081   -2.135148    0.007515
H         0.758680   -2.137469   -0.014475
H         0.758680    2.137469   -0.014475
H        -2.948149    0.000000    0.016079
H        -1.695081    2.135148    0.007515
N         2.318091   -0.000000   -0.069094
H         2.769463   -0.837548    0.257876
H         2.769463    0.837548    0.257873
