10
0 2
C         0.000000    0.535674   -0.039292
C        -1.287309   -0.197813    0.002362
H        -1.306267   -1.013074   -0.728053
H        -0.000000    1.609835    0.088589
C         1.287309   -0.197813    0.002362
H         1.306271   -1.013068   -0.728060
H         1.457546   -0.665837    0.982708
H         2.137776    0.453848   -0.195241
H        -2.137775    0.453846   -0.195251
H        -1.457551   -0.665829    0.982711
