17
0 2
C         0.536404    1.362156    0.000000
C         0.050000    0.784660    1.280459
C         0.050000   -0.746016    1.257403
C        -0.624126   -1.281393   -0.000000
C         0.050000   -0.746016   -1.257403
C         0.050000    0.784660   -1.280459
H        -0.983892    1.121677    1.464639
H         0.638140    1.155927    2.121414
H        -0.445408   -1.131595    2.150570
H         1.083141   -1.103936    1.287841
H        -1.678934   -0.985385   -0.000000
H        -0.606891   -2.373088   -0.000000
H        -0.445408   -1.131595   -2.150570
H         1.083141   -1.103936   -1.287841
H         0.638140    1.155927   -2.121414
H        -0.983892    1.121677   -1.464639
H         1.028205    2.326025    0.000000
