17
0 1
C        -2.171728    1.199124   -0.193805
C        -0.874203    1.199225    0.285879
C        -2.821645    0.000001   -0.433676
C        -2.171730   -1.199119   -0.193781
C        -0.874204   -1.199212    0.285903
C        -0.219454    0.000008    0.529257
H        -0.361796    2.135248    0.466791
N         2.143345   -0.000008   -0.146477
O         2.480046   -1.076266   -0.584292
O         2.480125    1.076236   -0.584268
H        -2.676567    2.137318   -0.380324
H        -2.676570   -2.137316   -0.380281
H        -3.836912   -0.000002   -0.807156
H        -0.361799   -2.135232    0.466833
C         1.194990    0.000013    1.024399
H         1.428349   -0.895402    1.591465
H         1.428354    0.895442    1.591439
