13
0 1
C        -1.576230    0.340388    0.000000
C        -1.214567   -0.993884    0.000000
C         0.123085   -1.330921   -0.000000
C        -0.607943    1.330487    0.000000
C         0.727995    0.987636   -0.000000
C         1.117255   -0.354019   -0.000000
F        -2.851831    0.674590    0.000000
F        -2.149414   -1.932542    0.000000
F         0.443832   -2.611329   -0.000001
F        -0.974616    2.603891   -0.000000
F         1.610613    1.967049   -0.000001
N         2.463839   -0.854630   -0.000001
O         3.328538   -0.026331    0.000002
