20
0 2
C        -0.184657    0.000000   -0.000000
C         0.557078    1.203131    0.000003
C         1.934262    1.197620    0.000003
C         2.637703    0.000000   -0.000000
C         1.934262   -1.197620   -0.000003
C         0.557078   -1.203131   -0.000003
H         2.470846    2.137663    0.000006
H         3.719172    0.000000   -0.000000
H         2.470846   -2.137663   -0.000006
H         0.037278   -2.150264   -0.000006
H         0.037278    2.150264    0.000006
C        -1.603743    0.000000    0.000000
C        -2.362182    1.286771   -0.000004
H        -2.127341    1.899107    0.876245
H        -3.435914    1.110992   -0.000021
H        -2.127314    1.899117   -0.876239
C        -2.362182   -1.286771    0.000005
H        -2.127315   -1.899117    0.876239
H        -2.127341   -1.899107   -0.876244
H        -3.435914   -1.110992    0.000021
