15
0 2
C        -1.180612   -0.195792   -0.000000
C        -1.217582   -1.582916    0.000006
C        -0.000000    0.517546   -0.000002
C         1.180612   -0.195793    0.000001
C         1.217581   -1.582916    0.000007
C        -0.000000   -2.198038    0.000009
H        -2.162282   -2.106712    0.000008
H         2.162281   -2.106712    0.000009
N         2.455492    0.547085   -0.000001
N        -2.455493    0.547085   -0.000004
H         0.000000    1.595373   -0.000006
O        -3.474826   -0.105690   -0.000004
O        -2.395703    1.754834   -0.000005
O         2.395704    1.754834   -0.000004
O         3.474826   -0.105690    0.000000
