13
0 2
C        -1.512792    1.205578    0.000014
C        -0.145520    1.234698   -0.000002
C         0.586293    0.000012   -0.000007
C         1.932198    0.000026   -0.000083
O         3.091239   -0.000012    0.000027
C        -2.219210   -0.000013    0.000018
C        -1.512772   -1.205592    0.000014
C        -0.145499   -1.234687   -0.000002
H         0.390310   -2.172855   -0.000004
H        -2.053695    2.142896    0.000025
H         0.390272    2.172875   -0.000004
H        -3.299327   -0.000023    0.000027
H        -2.053658   -2.142920    0.000025
