9
0 1
C         0.000000    0.879056    0.000000
N        -1.086753   -0.125232    0.000000
O        -0.714342   -1.258655    0.000000
C         1.408711    0.340642    0.000000
H        -0.219918    1.504446    0.870448
H        -0.219918    1.504446   -0.870448
H         1.596126   -0.274663    0.878635
H         2.117330    1.168116    0.000000
H         1.596126   -0.274663   -0.878635
