16
0 1
N        -0.000000    0.178843    1.470282
C         0.000000   -0.005084    0.015852
C         0.000000    1.328425   -0.735669
H         0.883305    1.915557   -0.476672
H        -0.883305    1.915558   -0.476672
C        -1.248499   -0.800980   -0.344399
H         0.000000    1.180287   -1.817228
H        -1.293291   -0.992948   -1.416974
H        -1.254835   -1.753891    0.183591
H        -2.150822   -0.252277   -0.065454
C         1.248499   -0.800980   -0.344398
H         2.150821   -0.252277   -0.065454
H         1.293291   -0.992948   -1.416974
H         1.254835   -1.753891    0.183591
H        -0.815479    0.703322    1.763981
H         0.815479    0.703322    1.763981
