26
0 1
C        -2.396533    0.128996   -0.002761
C        -1.054898    0.132564    0.711840
N        -0.000015    0.723473   -0.081202
H        -0.748153   -0.882358    0.943757
H        -1.184832    0.682822    1.640567
N        -2.358162   -0.622684   -1.304867
N        -3.423962   -0.531157    0.882840
N         0.000029    2.082678   -0.233785
C         2.396524    0.126396   -0.025997
N         3.423846   -0.713880   -0.743108
N         2.358268   -0.317577    1.410433
C         1.054824   -0.028639   -0.723488
H         1.184684    0.301906   -1.751144
H         0.748034   -1.069707   -0.724506
O        -1.556594   -1.523648   -1.401799
O        -3.128127   -0.251443   -2.150769
O        -3.971410   -1.523826    0.483840
O        -3.590988    0.021258    1.942283
O         0.936312    2.563186   -0.835628
O        -0.936227    2.684724    0.246521
O         1.556869   -1.174717    1.704901
O         3.128176    0.232245    2.152833
O         3.971366   -1.593220   -0.133787
O         3.590715   -0.410424   -1.898767
H         2.764904    1.146605   -0.035112
H        -2.764901    1.125783   -0.220327
