16
0 1
C         0.690524    1.212115    0.000009
C        -0.690524    1.212115    0.000008
C         1.351582    0.000000   -0.000001
C         0.690524   -1.212115   -0.000012
C        -0.690524   -1.212115   -0.000014
C        -1.351582    0.000000   -0.000003
H        -1.255840   -2.130824   -0.000021
H         1.255840    2.130824    0.000018
H        -1.255840    2.130824    0.000016
N        -2.827314    0.000000    0.000000
O        -3.384204   -1.074693   -0.000003
O        -3.384204    1.074693    0.000010
N         2.827314    0.000000    0.000001
O         3.384204   -1.074693   -0.000005
O         3.384204    1.074693    0.000008
H         1.255840   -2.130824   -0.000019
