11
0 1
C        -0.000018    0.000001    0.225910
N         1.023132   -0.998730   -0.355820
N        -1.376486   -0.386660   -0.355950
N         0.353429    1.385356   -0.355910
Cl        -0.000138    0.000059    1.925535
O        -0.299967    1.737472   -1.297021
O        -2.318778    0.111313    0.187777
O         1.654839   -0.608904   -1.296877
O        -1.354720   -1.128777   -1.296904
O         1.063157   -2.063672    0.188083
O         1.255711    1.952472    0.187967
