8
0 1
C         0.741818   -0.640489    0.000001
N        -0.558077    0.031092    0.000000
O        -1.526955   -0.699834    0.000001
O        -0.593213    1.241376   -0.000001
C         1.856061    0.054025   -0.000001
H         0.638531   -1.713220    0.000002
H         1.831824    1.134324   -0.000002
H         2.810255   -0.452298    0.000000
