22
0 1
C        -1.773643   -0.000002   -0.330031
N        -0.485400   -0.000001    0.371022
N         0.485399   -0.000001   -0.371021
C         1.773643   -0.000002    0.330031
C         2.520987   -1.260625   -0.069948
H         1.968318   -2.151999    0.226935
H         3.498762   -1.287759    0.411318
H         2.666295   -1.292158   -1.150446
C        -2.520983    1.260627    0.069937
H        -2.666289    1.292171    1.150436
H        -3.498759    1.287759   -0.411327
H        -1.968313    2.151997   -0.226955
C        -2.520987   -1.260625    0.069947
H        -1.583218   -0.000006   -1.406996
H        -2.666295   -1.292158    1.150446
H        -1.968318   -2.151999   -0.226935
H        -3.498762   -1.287759   -0.411318
C         2.520983    1.260627   -0.069937
H         1.583218   -0.000006    1.406996
H         2.666289    1.292171   -1.150436
H         3.498759    1.287759    0.411326
H         1.968313    2.151997    0.226955
