8
0 2
N        -0.675730    0.000020    0.707721
N         0.576346   -0.000001    0.077514
O         1.058236   -1.082117   -0.135739
O         1.058263    1.082101   -0.135751
C        -1.716732    0.000001   -0.284928
H        -1.630611   -0.888073   -0.920219
H        -1.630610    0.888049   -0.920255
H        -2.674687    0.000012    0.225319
