15
0 2
N         1.514030   -0.243729   -0.568112
N         2.781876    0.029001   -0.024662
C        -0.832655    0.163107   -0.443399
N        -1.897564    1.085489    0.109513
N        -1.248703   -1.253395   -0.145269
C         0.513399    0.496676    0.150502
H         0.690903    1.571480    0.043159
H         0.535187    0.238250    1.214726
O         3.345123    0.985821   -0.484673
O         3.172391   -0.750759    0.798576
O        -0.971945   -1.682387    0.947017
O        -1.823039   -1.830575   -1.032003
O        -2.906627    0.596497    0.536779
O        -1.628320    2.260413    0.037077
H        -0.858681    0.277933   -1.522981
