20
0 1
C        -1.020097   -0.000000    0.312157
C        -0.308207   -1.250041   -0.185370
C         1.162373   -1.258054    0.213683
C         1.873761    0.000000   -0.271299
C         1.162373    1.258054    0.213683
C        -0.308207    1.250041   -0.185370
N        -2.398576   -0.000000   -0.161148
H        -2.896897   -0.816605    0.169449
H        -2.896896    0.816607    0.169446
H        -0.402812   -1.282559   -1.274690
H        -0.811917   -2.140147    0.201970
H         1.652778   -2.148529   -0.183843
H         1.243472   -1.319301    1.303843
H         1.895764    0.000000   -1.365810
H         2.913252    0.000000    0.062683
H         1.652777    2.148530   -0.183843
H         1.243472    1.319301    1.303843
H        -0.811918    2.140146    0.201971
H        -0.402812    1.282560   -1.274690
H        -0.960214   -0.000000    1.412796
