12
0 1
C         0.285444   -0.305608    0.000012
N        -1.077679   -0.931904   -0.000030
O        -2.007799   -0.202117   -0.000095
C         0.961853   -0.800448   -1.264925
H         0.446201   -0.428045   -2.148269
H         0.953314   -1.889924   -1.281983
C         0.961780   -0.800466    1.264981
Cl         0.209904    1.477641    0.000022
H         0.953245   -1.889941    1.282019
H         0.446074   -0.428081    2.148301
H         1.992198   -0.452258    1.287220
H         1.992273   -0.452245   -1.287096
