12
0 2
C         1.278687    1.312504   -0.000002
C         0.609153   -0.000000   -0.000002
H         0.980126    1.901446    0.870595
H         0.980108    1.901455   -0.870586
H         2.358453    1.188959   -0.000013
C         1.278687   -1.312505    0.000000
H         0.980118   -1.901449    0.870592
H         2.358453   -1.188959   -0.000001
H         0.980116   -1.901453   -0.870589
N        -0.802935   -0.000000    0.000000
O        -1.375999    1.085586    0.000002
O        -1.376000   -1.085585    0.000001
