9
0 1
C        -0.000001   -0.549768    0.000005
N        -1.225116    0.362339    0.168785
N         1.225118    0.362329   -0.168793
O        -1.112051    1.167481    1.054606
O        -2.151942    0.162341   -0.560290
O         2.151931    0.162359    0.560304
O         1.112064    1.167437   -1.054646
F         0.122700   -1.280600    1.072323
F        -0.122701   -1.280624   -1.072297
