7
0 1
C        -2.364829    0.097494   -0.000004
N        -0.981689   -0.198345    0.000011
H        -2.625622    0.675673    0.886913
H        -2.942771   -0.825103    0.001303
H        -2.626071    0.673420   -0.888252
C         0.182671   -0.067938    0.000003
S         1.759952    0.042943   -0.000002
