24
0 1
C        -1.254094    0.451838   -0.021252
N        -0.000000    1.053349    0.000001
C         1.254094    0.451838    0.021253
C         1.469557   -0.821191    0.544619
C         2.348650    1.173073   -0.453832
C         3.620400    0.636658   -0.407869
C         3.829370   -0.636379    0.096569
C         2.745212   -1.354867    0.570932
H         4.823576   -1.060106    0.123755
H         2.891956   -2.344811    0.983011
H         0.642596   -1.383464    0.951637
H         2.190901    2.161490   -0.868140
H         4.454424    1.216515   -0.780988
H        -0.000000    2.057741    0.000001
C        -2.348651    1.173073    0.453831
C        -3.620401    0.636658    0.407867
C        -3.829370   -0.636379   -0.096571
C        -2.745212   -1.354868   -0.570932
C        -1.469557   -0.821191   -0.544617
H        -0.642595   -1.383464   -0.951634
H        -2.190903    2.161490    0.868139
H        -4.454426    1.216515    0.780985
H        -4.823576   -1.060107   -0.123758
H        -2.891955   -2.344812   -0.983010
