17
0 1
N         2.003395    0.116209   -0.397635
C         0.832036    0.094365    0.470886
C        -0.038204   -1.184698    0.403207
C        -0.126972    1.244736    0.091101
H         1.736276   -0.009203   -1.366891
H         2.647150   -0.627876   -0.160657
C        -1.523346    0.628288   -0.007518
H         0.178088    1.637535   -0.881067
H        -0.073795    2.075862    0.792602
C        -1.244110   -0.804772   -0.451536
H        -2.179093    1.174045   -0.685805
H        -2.006297    0.617247    0.973130
H        -2.093655   -1.475156   -0.322510
H        -0.978595   -0.817802   -1.512800
H        -0.380359   -1.451732    1.406359
H         0.526271   -2.034062    0.016962
H         1.203817    0.230163    1.487280
