16
0 2
C         0.000002   -0.000297    0.053309
C        -0.000100    1.292397   -0.782720
H         0.882455    1.896204   -0.568625
H        -0.882734    1.896080   -0.568601
C        -1.251344   -0.812282   -0.286824
H        -2.156612   -0.250671   -0.049964
H        -1.276223   -1.745465    0.277185
H        -1.276504   -1.057045   -1.350218
H        -0.000098    1.055348   -1.849230
C         1.251451   -0.812108   -0.286853
H         1.276617   -1.056874   -1.350246
H         1.276475   -1.745285    0.277160
H         2.156647   -0.250369   -0.050020
C        -0.000008    0.353013    1.502677
H        -0.927281    0.566861    2.017508
H         0.927255    0.566876    2.017522
