17
0 1
C         1.900907   -1.420155   -0.096331
C         0.523021   -1.457827   -0.076159
C         2.543823   -0.195795   -0.030451
C         1.809897    0.972141    0.051654
C         0.418041    0.976381    0.053433
C        -0.192494   -0.274748   -0.013785
H         2.466868   -2.338912   -0.158114
H        -0.017203   -2.391445   -0.108619
N        -1.656164   -0.406257   -0.019518
O        -2.310850    0.520038   -0.450514
O        -2.128033   -1.443684    0.395803
H         2.325050    1.921289    0.118643
H         3.624594   -0.148756   -0.037122
C        -0.305960    2.285934    0.151434
H         0.400411    3.072417    0.410634
H        -1.093573    2.262151    0.902055
H        -0.785351    2.540628   -0.791928
