7
0 2
C         0.031622    0.132750    0.000000
C        -1.308926   -0.408549    0.000008
O         0.262171    1.313974   -0.000002
O         1.059050   -0.752086   -0.000006
H        -1.514025   -1.470223    0.000009
H        -2.130365    0.289978    0.000012
H         0.738445   -1.660058   -0.000004
