8
0 2
O         0.992866   -0.643996    0.000003
C         0.830947    0.720852   -0.000001
C        -0.227767   -1.148496    0.000003
C        -0.482583    1.021680   -0.000001
C        -1.204261   -0.223874   -0.000003
H        -0.909206    2.010558   -0.000002
H         1.735248    1.301031   -0.000002
H        -2.266981   -0.380593   -0.000005
