13
0 1
C         0.101368    0.412422   -0.936013
N        -1.007499    0.024262   -0.003334
O        -1.646891   -0.967839   -0.271493
O        -1.191734    0.735076    0.959633
C         1.410284    0.569115   -0.189727
C         1.884075   -0.718209    0.465963
H         2.007804   -1.515660   -0.268391
H         1.175891   -1.063878    1.220028
H         2.842132   -0.567165    0.961647
H        -0.219861    1.351493   -1.383529
H         0.135163   -0.368030   -1.690333
H         1.298088    1.358401    0.553141
H         2.147915    0.917141   -0.915689
