16
0 1
C        -0.005861    0.614955   -0.434213
N        -0.818852   -0.574206    0.024196
O        -1.019962   -0.684330    1.213486
O        -1.218261   -1.341258   -0.823065
C         1.358819    0.564128    0.229995
C         2.146644   -0.698676   -0.078673
H         1.223991    0.677496    1.306455
H         1.906873    1.442691   -0.117003
H         2.288791   -0.825740   -1.152875
H         1.640252   -1.587557    0.299163
C        -0.785457    1.874310   -0.115347
H         0.079344    0.466378   -1.508326
H        -0.236170    2.737378   -0.489540
H        -0.914012    1.981445    0.960278
H        -1.766730    1.863717   -0.588589
H         3.130539   -0.659966    0.387122
