10
0 2
C         1.123017   -0.240326    0.000035
N         0.009360   -1.063994   -0.000013
C        -1.139901   -0.211007   -0.000021
N        -0.713155    1.087674    0.000002
C         0.716562    1.222206    0.000017
O        -2.272754   -0.604581    0.000001
H         1.107672    1.723745   -0.887294
H         1.107655    1.723747    0.887335
O         2.258309   -0.656243   -0.000023
H        -1.371271    1.848103    0.000026
