24
0 1
C        -3.246083    1.130631    0.059236
C        -1.876746    1.303240    0.052169
C        -3.788496   -0.142654    0.008564
C        -2.937275   -1.231558   -0.049294
C        -1.561235   -1.074780   -0.057698
C        -1.020247    0.205522   -0.006322
H        -1.460986    2.303734    0.092777
H        -3.891469    1.997874    0.105220
H        -3.346023   -2.232846   -0.089114
H        -0.904450   -1.926387   -0.098964
N         0.355051    0.479153   -0.017596
H        -4.860698   -0.282494    0.014549
C         1.400175   -0.417650   -0.009899
H         0.579593    1.455967    0.007713
O         1.242292   -1.622932    0.035510
N         2.644280    0.159861   -0.065049
C         3.804504   -0.689991    0.093241
H         4.299966   -0.509479    1.051719
H         4.521266   -0.505871   -0.709200
H         3.482285   -1.724522    0.053470
C         2.861831    1.587124   -0.071118
H         3.916361    1.775740   -0.256536
H         2.604811    2.060979    0.882994
H         2.307122    2.078364   -0.873465
