21
0 2
C         1.338004    1.178400   -0.000000
C         0.165621    1.894178   -0.000001
C        -1.117004    1.281382   -0.000001
C         1.278770   -0.213919    0.000000
C         0.044300   -0.875989    0.000000
C        -1.129353   -0.166407   -0.000000
H         0.199453    2.976645   -0.000001
N        -2.261470    1.932154   -0.000001
H        -2.078199    2.934919   -0.000001
H         2.283878    1.697191   -0.000000
H         0.059694   -1.954500    0.000000
O        -2.342140   -0.726474   -0.000000
C        -2.438053   -2.133316    0.000000
H        -1.973454   -2.562008   -0.891389
H        -3.499885   -2.361211    0.000000
H        -1.973454   -2.562007    0.891390
O         2.359785   -1.020477    0.000000
C         3.644181   -0.433648    0.000001
H         3.800323    0.177612   -0.891613
H         4.351669   -1.257812    0.000002
H         3.800322    0.177613    0.891615
