15
0 2
C        -0.885792   -1.303046    0.194057
C        -1.737204   -0.051183   -0.069341
N         0.388018   -1.177476   -0.463830
H        -1.388594   -2.199339   -0.165077
H        -0.730508   -1.407025    1.276358
C         1.116565   -0.052694   -0.102815
C         0.385209    1.247445   -0.364204
C        -0.981261    1.208680    0.323065
H         0.253897    1.361603   -1.443125
H         1.012393    2.062388   -0.008682
H        -1.556681    2.097603    0.062615
H        -0.840169    1.229521    1.406955
H        -2.670900   -0.142781    0.486842
H        -1.993725   -0.017905   -1.130423
O         2.226632   -0.129618    0.359597
