13
0 2
C         1.390189   -1.868948   -0.000000
C         0.023125   -1.882279   -0.000000
C        -0.744521   -0.676487    0.000000
C         2.074778   -0.651860   -0.000000
C         1.374791    0.547856   -0.000000
C        -0.000000    0.549352    0.000000
H         1.942496   -2.798785   -0.000000
H        -0.519177   -2.819696   -0.000000
H         1.902910    1.490614   -0.000000
N        -2.062289   -0.643483    0.000000
H        -2.429049   -1.594719    0.000000
Cl        -0.842780    2.044600    0.000000
H         3.155927   -0.637033   -0.000000
