12
0 2
N        -1.202744   -1.109300   -0.000000
C        -0.029632   -1.747347    0.000000
C         1.200972   -1.090814    0.000000
C         1.225915    0.278140    0.000000
C         0.000000    0.992266   -0.000000
C        -1.188496    0.202595   -0.000000
H        -0.074512   -2.829774    0.000000
H         2.115998   -1.667089    0.000000
H         2.148161    0.842858    0.000000
N         0.010504    2.318091   -0.000000
H        -0.946481    2.673883   -0.000000
H        -2.150041    0.709555   -0.000000
