13
0 2
C        -1.213907    0.655030   -0.000000
C        -1.207947   -0.715829   -0.000000
C         0.014406   -1.450368    0.000000
C         0.000000    1.326682    0.000000
C         1.220882    0.666087    0.000000
C         1.228343   -0.703563    0.000000
H        -2.133628    1.223119   -0.000000
H        -2.142081   -1.263158   -0.000000
H         2.154462   -1.260738    0.000000
H         2.135004    1.243053    0.000000
N         0.092332   -2.773748    0.000000
H        -0.843932   -3.178525   -0.000000
F        -0.007424    2.664916   -0.000000
