11
0 2
C         1.151543   -1.102544    0.000000
C         1.218895    0.265753   -0.000000
N        -0.000000   -1.787575    0.000000
C        -1.151543   -1.102544    0.000000
C        -1.218895    0.265753   -0.000000
C        -0.000000    1.028076   -0.000000
H         2.055297   -1.700256    0.000000
H         2.160306    0.796998   -0.000000
O        -0.000000    2.274072   -0.000000
H        -2.055297   -1.700256    0.000000
H        -2.160306    0.796998   -0.000000
