17
0 1
C        -1.965935    0.569129   -0.000988
C        -0.816889    1.336523   -0.006345
C         0.438877    0.737446   -0.004937
C        -1.879791   -0.811635    0.008695
C        -0.629292   -1.406583    0.009987
C         0.537535   -0.659542    0.000238
H        -2.932431    1.055825   -0.002707
H        -0.886533    2.417878   -0.014559
N         1.588674    1.518504   -0.065818
H         1.467213    2.482313    0.196459
H         2.421009    1.114356    0.328621
H        -0.551376   -2.487209    0.015076
H        -2.773722   -1.419697    0.014589
C         1.883972   -1.317948   -0.012293
H         1.785906   -2.401042   -0.051741
H         2.463950   -1.075998    0.883876
H         2.474411   -1.000300   -0.875027
