18
0 1
C        -0.230761    0.103276    0.054657
C         1.240638    0.352751    0.119361
O         1.707139    1.434654    0.414350
N         2.037170   -0.710204   -0.180829
N         3.423184   -0.564256   -0.267523
H         1.661613   -1.484391   -0.699260
H         3.805702   -0.564668    0.671122
H         3.618386    0.353412   -0.656456
C        -0.788281   -1.160511    0.204852
C        -2.160738   -1.327265    0.142838
C        -2.982545   -0.234015   -0.071941
C        -2.430754    1.029463   -0.212801
C        -1.060953    1.198254   -0.143264
H        -0.158088   -2.016675    0.405717
H        -2.589455   -2.312076    0.270992
H        -4.055298   -0.365551   -0.121559
H        -3.071860    1.885797   -0.373535
H        -0.610225    2.176421   -0.235567
