21
0 2
N        -0.590726    0.162084    0.000001
N        -1.373288   -0.898165   -0.000000
C        -2.685034   -0.470806    0.000000
C        -2.741738    1.054067    0.000002
C        -1.283017    1.462228    0.000001
O        -3.639047   -1.206525   -0.000000
C         0.793683    0.031435    0.000000
H        -0.988897    2.028458   -0.883625
H        -0.988895    2.028459    0.883624
H        -3.284980    1.392983    0.879436
H        -3.284983    1.392985   -0.879428
C         1.603337    1.166016   -0.000001
C         2.978837    1.026500   -0.000002
C         3.558911   -0.230000   -0.000002
C         2.747592   -1.355933   -0.000000
C         1.373905   -1.237567    0.000001
H         0.732396   -2.104776    0.000002
H         4.635176   -0.333177   -0.000003
H         3.192276   -2.342049    0.000000
H         1.169084    2.154544   -0.000002
H         3.600447    1.911692   -0.000004
