8
0 2
N         0.675730    0.000017    0.707721
C         1.716732    0.000001   -0.284928
H         1.630609    0.888050   -0.920254
H         1.630612   -0.888072   -0.920221
H         2.674687    0.000011    0.225319
N        -0.576346   -0.000001    0.077514
O        -1.058238   -1.082116   -0.135740
O        -1.058260    1.082102   -0.135750
