30
0 1
C        -1.592603   -1.753845   -0.311635
C        -2.902358   -1.375915   -0.111725
C        -3.203676   -0.059212    0.197412
C        -2.174836    0.858914    0.292105
C        -0.846131    0.508732    0.089400
C        -0.552596   -0.827871   -0.211804
N         0.749018   -1.242868   -0.448274
C         1.866415   -0.446335    0.040792
H        -4.226914    0.248786    0.361839
H        -3.690572   -2.112853   -0.193964
H        -2.413577    1.885484    0.536529
C         0.266265    1.530674    0.223676
C         1.572003    0.996546   -0.356397
H        -1.354843   -2.783146   -0.553739
H         1.520549    1.038029   -1.447617
H         2.400325    1.637224   -0.047672
C         2.026578   -0.586842    1.557531
H         1.101816   -0.340917    2.077548
H         2.815424    0.068414    1.930850
H         2.291044   -1.613746    1.815589
C         3.127680   -0.931759   -0.657520
H         3.034346   -0.819410   -1.737249
H         3.310619   -1.985987   -0.437714
H         3.996771   -0.366869   -0.319366
C        -0.068960    2.873024   -0.419184
H         0.422231    1.712434    1.292665
H         0.777843    3.555534   -0.329527
H        -0.926267    3.353423    0.048745
H        -0.292264    2.745955   -1.479652
H         0.883664   -2.238950   -0.375245
