22
0 1
C        -0.319504   -1.648889    0.003667
C         1.064828   -1.801746    0.007295
C         1.887860   -0.694393    0.008660
C        -0.899475   -0.399944   -0.001864
C        -0.064421    0.731288   -0.000859
C         1.306843    0.577121    0.006902
H         1.491994   -2.796225    0.013488
N         3.279133   -0.818004    0.070956
H         3.631818   -1.709148   -0.238137
H         3.788979   -0.056059   -0.345682
H        -0.939158   -2.532902    0.002552
O        -2.236760   -0.154452   -0.008813
C        -3.101308   -1.261426   -0.003447
H        -2.960071   -1.886718   -0.890293
H        -4.111165   -0.859563   -0.006887
H        -2.961792   -1.876413    0.890795
H         1.950397    1.444537    0.021188
O        -0.695129    1.926978   -0.006196
C         0.088607    3.095137    0.005113
H        -0.609776    3.927593    0.003048
H         0.726706    3.157901   -0.880799
H         0.712676    3.149939    0.901302
