20
0 1
C        -2.309646    1.782570   -0.412593
C        -3.176101    0.707762   -0.438958
C        -2.757046   -0.568527   -0.058003
C        -0.994286    1.624421   -0.012460
C        -0.586810    0.354438    0.358387
C        -1.435666   -0.737552    0.343991
H        -2.666987    2.760260   -0.705643
H        -4.200799    0.852393   -0.758328
N        -3.617485   -1.644898   -0.121631
H        -4.602198   -1.443388   -0.116053
H        -3.365952   -2.461682    0.407792
S         1.075118    0.109478    0.867865
H        -0.305936    2.454632    0.027783
C         1.928245   -0.277574   -0.736820
H        -1.070349   -1.706026    0.656795
O         1.175120   -1.088062    1.639909
O         1.639446    1.346335    1.302562
F         3.211055   -0.493731   -0.493181
F         1.810237    0.737373   -1.585082
F         1.401382   -1.362862   -1.293715
