17
0 1
C        -0.221875    0.036990   -0.013291
C        -1.710486    0.103463   -0.044659
N        -2.351281   -1.004765    0.453282
N        -2.392462    1.064119   -0.521239
H        -1.793294    1.763991   -0.944191
H        -1.897428   -1.522071    1.185617
H        -3.350511   -0.908284    0.535214
C         0.446913   -1.156718   -0.258212
C         1.830426   -1.197947   -0.253436
C         2.559293   -0.050471    0.008009
C         1.899083    1.140838    0.261386
C         0.517205    1.184437    0.247901
H        -0.121944   -2.050097   -0.477526
H         2.340809   -2.129319   -0.459707
H         3.640577   -0.083907    0.015544
H         2.463239    2.038804    0.475237
H         0.001413    2.111848    0.459319
