18
0 2
C        -0.060991    1.166345    0.000001
C        -1.428053    1.223280   -0.000004
C        -2.211149    0.029974   -0.000007
C         0.603621   -0.067661    0.000005
C        -0.147852   -1.252717    0.000002
C        -1.512076   -1.214676   -0.000004
H         0.506460    2.086201    0.000003
H        -1.939112    2.178087   -0.000007
N        -3.532198    0.009334   -0.000013
H        -3.897611    0.962203   -0.000015
H        -2.106684   -2.117584   -0.000006
H         0.387483   -2.191592    0.000005
C         2.089237   -0.171256    0.000011
O         2.624927   -1.255742    0.000005
C         2.907722    1.093250    0.000005
H         2.686212    1.698988   -0.879852
H         3.960241    0.826076    0.000003
H         2.686217    1.698992    0.879861
