12
0 2
C        -1.076506    0.020122    0.000220
N        -2.051532   -0.959443   -0.083291
H        -2.766774   -0.768418    0.620667
O         0.146431   -0.484494   -0.023682
O        -1.351305    1.195529    0.000233
C         1.226119    0.469039   -0.015931
C         2.513875   -0.307732    0.030512
H         1.108000    1.123085    0.847995
H         1.148231    1.082466   -0.913174
H         2.567332   -0.918788    0.930859
H         3.357888    0.382049    0.031846
H         2.604115   -0.961146   -0.836373
