26
0 2
C         4.044017   -0.736786    0.000003
C         2.675101   -0.798028    0.000004
C         4.703527    0.492093   -0.000004
C         3.975617    1.680934   -0.000010
C         2.606573    1.644257   -0.000009
C         1.908793    0.403692   -0.000003
H         2.170946   -1.752145    0.000009
H         4.618702   -1.652970    0.000008
H         4.492388    2.630928   -0.000015
H         2.011462    2.546482   -0.000014
N         0.579314    0.486794   -0.000003
C        -1.964020   -0.153405    0.000001
C        -2.585003    0.115045    1.207341
C        -2.585004    0.115031   -1.207341
C        -3.850152    0.673917   -1.201971
C        -3.850150    0.673932    1.201965
C        -4.479501    0.954756   -0.000004
H        -5.470222    1.389549   -0.000006
H        -4.347908    0.885675   -2.138438
H        -2.081791   -0.125093   -2.132920
H        -2.081789   -0.125066    2.132922
H        -4.347906    0.885701    2.138430
H         5.784759    0.521665   -0.000004
S        -0.355289   -0.870853    0.000005
O        -0.169876   -1.566948    1.240273
O        -0.169876   -1.566961   -1.240256
