9
0 1
C         1.102392    0.304579    0.000000
C         0.659619   -0.992063    0.000000
C        -0.743043   -0.885043    0.000000
N        -1.134491    0.374917    0.000000
N        -0.000000    1.080421    0.000000
H         2.093822    0.723758    0.000000
H        -1.477330   -1.673943    0.000000
H        -0.047233    2.083361    0.000000
H         1.258380   -1.885377    0.000000
