24
0 2
C         2.292329   -1.214045   -0.281010
C         0.947572   -0.978325   -0.467248
C         3.122028   -0.166137    0.084289
C         2.616946    1.106458    0.261444
C         1.265895    1.331959    0.067020
C         0.413047    0.296936   -0.296392
H         2.704089   -2.203393   -0.418713
H         0.293109   -1.789287   -0.754182
H         3.274877    1.913355    0.549686
H         0.880256    2.330199    0.215463
C        -1.030323    0.537478   -0.482036
C        -1.569666    1.933558   -0.546341
H        -1.611160    2.364776    0.454435
H        -2.578660    1.924695   -0.949721
H        -0.938942    2.564928   -1.170585
N        -1.796042   -0.466514   -0.598847
N        -3.060412   -0.594587   -0.749714
C        -3.827170   -0.377093    0.415839
C        -5.240586   -0.850096    0.277414
H        -5.252470   -1.940520    0.239701
H        -5.668402   -0.492105   -0.657957
H        -5.829203   -0.508343    1.123611
O        -3.380669    0.164959    1.398961
Cl         4.813330   -0.457672    0.318743
