24
0 2
C        -3.998500   -1.080392    0.000000
C        -2.620014   -1.058834    0.000000
C        -4.724709    0.102637   -0.000000
C        -4.054187    1.319004   -0.000001
C        -2.677547    1.353480   -0.000001
C        -1.927888    0.165112   -0.000000
N        -0.567268    0.312344   -0.000000
S         0.378164   -0.996455    0.000000
C         1.989451   -0.289552    0.000000
C         2.219742    1.077001   -0.000000
C         3.053632   -1.182952    0.000001
C         4.350406   -0.705064    0.000001
C         3.522526    1.543202   -0.000000
C         4.589476    0.659785    0.000000
H         1.379320    1.754385   -0.000001
H         3.704167    2.609872   -0.000001
H         5.604538    1.033128   -0.000000
H         2.866308   -2.249695    0.000001
H         5.177287   -1.402529    0.000001
H        -2.070856   -1.990725    0.000001
H        -4.516199   -2.030577    0.000000
H        -5.805838    0.076258   -0.000000
H        -4.613609    2.245084   -0.000001
H        -2.139200    2.291103   -0.000001
