12
0 2
C        -0.011818    0.131055   -0.169929
N        -1.191306   -0.529964   -0.471721
O         0.998204   -0.725917   -0.049829
O         0.089503    1.330260   -0.099644
C         2.276150   -0.137464    0.199514
H         2.252669    0.456943    1.111131
H         2.566873    0.499713   -0.633508
H         2.965554   -0.969197    0.302963
C        -2.318701   -0.149397    0.318218
H        -2.306742    0.924916    0.524620
H        -2.273631   -0.666206    1.286584
H        -3.241018   -0.436331   -0.180776
