21
0 2
C        -0.458470   -2.305270   -0.154425
C        -0.814451   -0.981031   -0.044001
C         0.877480   -2.667619   -0.154689
C         1.851693   -1.688378   -0.051445
C         1.477455   -0.369270    0.005164
C         0.136790    0.053038    0.013212
H        -1.237667   -3.052215   -0.211419
H         2.902391   -1.939029   -0.034336
N        -0.094939    1.392819    0.108025
O        -1.337137    1.686144   -0.268172
N         2.553238    0.631104    0.007245
O         3.399057    0.511322    0.866861
O         2.542108    1.466366   -0.864466
C        -1.627908    3.065097   -0.043143
H        -2.609165    3.229852   -0.477461
H        -0.875496    3.679739   -0.533172
H        -1.644565    3.264114    1.026861
H         1.157209   -3.708453   -0.224311
N        -2.250783   -0.723246    0.133818
O        -2.596508   -0.274181    1.201151
O        -2.982627   -1.041920   -0.774600
