27
0 2
N         0.119536   -0.343501   -1.233388
C         2.464117   -0.266646   -0.562186
C        -2.207038   -0.316759    0.010069
C        -2.377534    0.951863   -0.522719
C        -3.207485   -0.898762    0.778954
C        -3.557339    1.633187   -0.281721
C        -4.559492    1.060858    0.484686
C        -4.380444   -0.206998    1.014750
C         2.960435   -0.987924    0.512771
C         2.883748    1.044572   -0.744030
C         3.784795    1.622483    0.131143
C         4.278105    0.893841    1.202178
C         3.864473   -0.412839    1.391192
H         4.246236   -0.988121    2.224311
H         2.636817   -2.010194    0.665190
H         4.105552    2.644448   -0.022336
H         4.984437    1.344715    1.886499
H         2.493782    1.615768   -1.577163
H        -1.586722    1.384758   -1.116901
H        -3.693086    2.623241   -0.696625
H        -5.478175    1.601097    0.669054
H        -5.158361   -0.661178    1.613736
H        -3.067483   -1.890746    1.190367
S        -0.743193   -1.258209   -0.233983
C         1.450704   -0.875890   -1.499335
H         1.495031   -1.967654   -1.425105
H         1.694036   -0.606201   -2.528080
