8
0 2
N        -0.064126    1.179065    0.000001
C         0.777189    0.085275    0.000006
O        -0.028968   -1.106986   -0.000004
C        -1.281029   -0.687002    0.000004
C        -1.290450    0.709008   -0.000003
O         1.959689    0.003658   -0.000002
H        -2.159736    1.348293   -0.000006
H        -2.071404   -1.418804    0.000004
