21
0 1
C         2.229515    1.228515   -0.122539
C         1.556110    0.101402    0.655200
C         2.375540   -1.118379    0.274240
N         3.314021   -0.713435   -0.653099
N         3.351553    0.695818   -0.727452
H         3.581833    1.069795   -1.637771
H         4.216418   -1.165407   -0.603126
C         0.068710    0.017134    0.407874
O         2.290920   -2.235612    0.705646
O         1.876933    2.368871   -0.234135
H         1.735171    0.273561    1.720563
C        -0.513016   -1.084320   -0.199871
C        -1.877741   -1.123573   -0.430049
C        -2.661414   -0.053373   -0.047963
C        -2.099420    1.053482    0.562702
C        -0.737494    1.082704    0.788770
H        -0.293147    1.953855    1.249148
H        -2.724865    1.883740    0.857084
H         0.090303   -1.935371   -0.481426
H        -2.330381   -1.984347   -0.900519
Cl        -4.371876   -0.097655   -0.331904
