27
0 2
C        -1.836178   -1.103723   -0.583452
C        -0.553982   -0.635926   -0.496507
C        -2.912002   -0.322939   -0.148901
C        -2.678393    0.959015    0.346840
C        -1.390617    1.437614    0.412372
C        -0.280961    0.655917    0.025787
H         0.259642   -1.240341   -0.868604
H        -2.048805   -2.078793   -1.000313
H        -1.190349    2.433738    0.781836
N         0.932032    1.227831    0.120518
C         2.095624    0.498522    0.084424
C         2.256709   -0.759699    0.684734
C         3.215997    1.098549   -0.506928
C         3.482576   -1.395217    0.661915
C         4.569479   -0.809075    0.032151
C         4.427591    0.442557   -0.551198
H         5.274943    0.914450   -1.031102
H         3.095777    2.083826   -0.935845
H         3.592977   -2.356880    1.146035
H         5.525104   -1.315181    0.011772
H         1.423734   -1.210254    1.205462
H        -3.495026    1.585581    0.671634
O        -4.132598   -0.884845   -0.264627
C        -5.262729   -0.139636    0.136612
H        -6.123324   -0.778017   -0.041017
H        -5.363255    0.775462   -0.451461
H        -5.213535    0.114587    1.197900
