12
0 1
C         1.474726   -1.180283    0.000000
C         0.127702   -1.207943    0.000000
N         2.152778    0.000000    0.000000
C         1.474726    1.180283    0.000000
C         0.127702    1.207943    0.000000
C        -0.653680    0.000000    0.000000
H         3.157019   -0.000000    0.000000
H         2.079630   -2.075345    0.000000
H        -0.388676   -2.155849    0.000000
S        -2.307214   -0.000000    0.000000
H        -0.388676    2.155849    0.000000
H         2.079630    2.075345    0.000000
