14
0 1
C         2.341001    0.008967    0.004290
C         1.496927    1.099905   -0.002921
C         0.110233    0.942286   -0.008576
C         1.829028   -1.278901    0.005175
C         0.458402   -1.457608    0.001786
C        -0.383146   -0.362923   -0.004682
H         3.411177    0.167098    0.008192
H         1.905177    2.103002   -0.010470
H         0.027594   -2.448952    0.005796
N        -0.729226    2.033238   -0.064229
H        -1.686816    1.877731    0.200690
H        -0.345574    2.908275    0.246714
Cl        -2.106391   -0.612594    0.001067
H         2.487004   -2.136073    0.010108
