21
0 2
C         0.553799   -1.008742    0.086718
C        -0.800255   -0.808048    0.047774
C         1.429212    0.070861   -0.033101
C         0.942200    1.366388   -0.192587
C        -0.409909    1.583591   -0.232953
C        -1.326379    0.505143   -0.112026
H        -1.479193   -1.644408    0.116776
H         0.950765   -2.007537    0.201640
H         1.632649    2.191657   -0.290407
H        -0.819198    2.575831   -0.358084
N        -2.621418    0.799133   -0.133139
C        -3.606375   -0.181911   -0.132606
O        -3.664777   -1.038694   -0.982025
C        -4.634234   -0.006382    0.946959
H        -5.155000    0.939920    0.800564
H        -4.152416    0.038545    1.924700
H        -5.341885   -0.829882    0.912953
C         2.907235   -0.167067    0.063469
F         3.260246   -1.343599   -0.470356
F         3.612701    0.784748   -0.559523
F         3.316016   -0.182426    1.344342
