25
0 2
C         0.441062    1.215022   -0.000037
C         1.814208    1.202304   -0.000041
C         2.541718   -0.019229   -0.000008
C        -0.302340    0.030998    0.000000
C         0.408695   -1.181961    0.000034
C         1.774186   -1.218839    0.000030
H        -0.065510    2.168486   -0.000064
H         2.366725    2.134298   -0.000071
N         3.863933   -0.109247   -0.000010
H         4.273497    0.825329   -0.000038
H         2.314055   -2.155820    0.000056
H        -0.135958   -2.116417    0.000063
C        -1.825286    0.011318    0.000006
C        -2.425669    1.415603   -0.000037
H        -2.131804    1.981952    0.884294
H        -3.513589    1.345397   -0.000031
H        -2.131810    1.981896   -0.884406
C        -2.321881   -0.723930    1.252064
H        -1.983570   -0.220355    2.158313
H        -1.963711   -1.751974    1.286836
H        -3.412686   -0.749551    1.263559
C        -2.321889   -0.724009   -1.252003
H        -1.963719   -1.752055   -1.286712
H        -1.983584   -0.220491   -2.158286
H        -3.412694   -0.749631   -1.263490
