28
0 1
N        -0.308429    2.482344   -0.479933
C        -1.772493    0.620057    0.337969
C         1.568698    0.454206   -0.153012
C         1.042096   -0.300007   -1.190773
C         2.413207   -0.146716    0.769439
C         1.334414   -1.646952   -1.286656
C         2.180306   -2.247714   -0.367727
C         2.725612   -1.490768    0.654557
C        -2.501536    0.058304   -0.701602
C        -1.293524   -0.209392    1.341302
C        -1.512285   -1.574831    1.294177
C        -2.225244   -2.127078    0.244080
C        -2.725975   -1.305994   -0.752852
H        -3.295069   -1.729824   -1.569901
H        -2.895909    0.697003   -1.483958
H        -1.117550   -2.210443    2.075462
H        -2.394425   -3.194886    0.204234
H        -0.721329    0.217436    2.155169
H         0.379779    0.157755   -1.912141
H         0.899493   -2.231455   -2.086522
H         2.409532   -3.301772   -0.447194
H         3.383979   -1.950942    1.379727
H         2.811120    0.436513    1.590377
S         1.252453    2.197225    0.029054
C        -1.453166    2.093000    0.335684
H        -1.253371    2.432743    1.351624
H        -2.311902    2.657400   -0.034087
H        -0.455243    2.431766   -1.475638
