25
0 1
C        -3.853294   -0.587838   -0.676319
C        -2.827812    0.246554   -1.076061
C        -3.826144   -1.189013    0.571704
C        -2.753865   -0.943099    1.411401
C        -1.717709   -0.113404    1.020802
C        -1.750427    0.492269   -0.228717
N        -0.730694    1.339586   -0.671183
S         0.603698    1.801158    0.199279
C         1.752043    0.464287   -0.001078
C         1.469805   -0.675620   -0.735356
C         2.983064    0.595034    0.630667
C         3.925651   -0.409388    0.520261
C         2.420461   -1.677917   -0.839108
C         3.648913   -1.551341   -0.215288
H         0.509994   -0.783797   -1.219383
H         2.192567   -2.567347   -1.411738
H         4.386940   -2.337286   -0.299282
H         3.203852    1.485042    1.207642
H         4.882883   -0.299232    1.012540
H        -2.859361    0.717851   -2.051251
H        -4.682994   -0.766794   -1.347552
H        -4.629920   -1.841074    0.883856
H        -2.714862   -1.407480    2.388054
H        -0.882008    0.067259    1.681153
H        -0.775512    1.634096   -1.631665
