24
0 1
C        -2.116855   -1.114183   -0.050282
C        -0.738673   -0.989779   -0.056105
C        -2.922689    0.005549    0.001529
C        -2.358589    1.266334    0.048500
C        -0.985053    1.393322    0.043384
C        -0.158207    0.273478   -0.008802
H        -0.109687   -1.862335   -0.093004
H        -2.566008   -2.096496   -0.086580
H        -2.989832    2.142266    0.089361
H        -0.546413    2.383592    0.080941
N         1.223063    0.505097   -0.017461
C         2.237870   -0.428193   -0.008945
O         2.034499   -1.626788    0.030997
N         3.499622    0.105438   -0.055682
H         1.479986    1.473971    0.006868
C         4.630781   -0.786114    0.087150
H         4.271316   -1.808400    0.050824
H         5.143366   -0.623700    1.039469
H         5.343581   -0.627174   -0.724086
C         3.765950    1.524849   -0.060885
H         3.510302    2.008164    0.888546
H         3.241429    2.033567   -0.872822
H         4.829088    1.676758   -0.228974
Cl        -4.651125   -0.166543    0.008248
