27
0 1
C         1.903905   -1.091804    0.329000
C         0.581808   -0.710705    0.380425
C         2.856864   -0.148083   -0.008293
C         2.518751    1.157355   -0.293086
C         1.188842    1.527235   -0.231794
C         0.202531    0.603023    0.101662
H         2.209934   -2.102702    0.549815
H        -0.180268   -1.429162    0.641674
H         3.290016    1.863416   -0.559065
H         0.925265    2.547484   -0.469052
C        -1.225137    0.986840    0.143378
C        -1.630070    2.419561    0.330120
H        -0.791942    3.043019    0.622323
H        -2.382025    2.502410    1.117658
H        -2.060193    2.835669   -0.584528
N        -2.067394    0.037799    0.010206
N        -3.381370    0.315459    0.020398
C        -4.340221   -0.664231   -0.128346
C        -3.849308   -2.073646   -0.269242
H        -3.285379   -2.370899    0.614041
H        -3.178268   -2.163672   -1.121952
H        -4.712495   -2.719156   -0.396291
O        -5.505392   -0.345484   -0.134419
H        -3.734302    1.260992    0.095269
N         4.268684   -0.546343   -0.062470
O         4.537303   -1.700773    0.192691
O         5.082143    0.302623   -0.359492
