12
0 2
N         1.243687   -0.861242    0.361312
C        -0.089075   -0.463924    0.668447
N        -0.846888   -0.174951   -0.533517
H        -0.063729    0.421039    1.308796
H        -0.574073   -1.280535    1.212082
N         2.143604    0.122527   -0.020888
H         1.393713   -1.688635   -0.198879
N        -2.177690    0.098749   -0.186268
O         1.901954    1.253722    0.321767
O         3.110132   -0.269354   -0.626947
O        -2.465624    1.259365   -0.085277
O        -2.891519   -0.864220   -0.069188
