15
0 2
C        -0.798036    1.256053    0.014847
C         0.568134    1.394046   -0.018083
C        -1.358078   -0.015498    0.000011
C        -0.553852   -1.140370   -0.058171
C         0.819029   -1.004100   -0.085754
C         1.412174    0.270460   -0.053713
H         1.027477    2.372620   -0.008139
H        -1.440082    2.124488    0.050166
H        -1.007551   -2.120711   -0.093309
H         1.423695   -1.894756   -0.180815
N         2.752212    0.522564   -0.060984
N         3.549433   -0.539901    0.057110
H         4.511123   -0.289272    0.214762
H         3.225484   -1.341122    0.586331
Cl        -3.081641   -0.193731    0.039018
