8
0 2
C         0.519549    1.026495    0.000000
C         1.126736   -0.268903    0.000000
C        -0.000000   -1.150488    0.000000
N        -1.101644   -0.481133    0.000000
N        -0.765639    0.926771    0.000000
H         1.011817    1.987189    0.000000
H         0.005373   -2.229947    0.000000
H         2.176082   -0.519335    0.000000
