28
0 2
C         2.190020   -1.418054   -0.242576
C         0.862297   -1.126527   -0.422214
C         3.100114   -0.400191    0.043438
C         2.653697    0.908168    0.142492
C         1.308403    1.188031   -0.046688
C         0.392681    0.187074   -0.328165
H         2.557731   -2.431902   -0.318830
H         0.161236   -1.918998   -0.644243
H         3.334430    1.714902    0.365884
H         0.981380    2.214145    0.042909
C        -1.036579    0.489657   -0.503812
C        -1.511276    1.908563   -0.594282
H        -1.502993    2.368142    0.394526
H        -2.530185    1.937717   -0.970587
H        -0.868743    2.491248   -1.252862
N        -1.856095   -0.474718   -0.590834
N        -3.128667   -0.544490   -0.723538
C        -3.864798   -0.271618    0.447101
C        -5.304824   -0.667736    0.332432
H        -5.378006   -1.756469    0.325917
H        -5.721241   -0.312433   -0.608993
H        -5.865431   -0.271119    1.173829
O        -3.379829    0.255060    1.421481
O         4.385062   -0.783828    0.204701
C         5.350191    0.202327    0.498592
H         6.298677   -0.319689    0.586640
H         5.126996    0.708030    1.441180
H         5.418068    0.942857   -0.302128
