17
0 2
C         0.193463    0.099994   -0.000001
C        -1.269340    0.330831   -0.000006
O        -1.766630    1.447441   -0.000031
N        -2.046584   -0.821701    0.000018
N        -3.314964   -0.528593    0.000015
H        -3.591903    0.449781   -0.000008
H        -3.972707   -1.286658    0.000023
C         0.736340   -1.180301   -0.000013
C         2.109030   -1.348730   -0.000012
C         2.945134   -0.244230    0.000002
C         2.407112    1.033593    0.000015
C         1.036607    1.205484    0.000013
H         0.075746   -2.034415   -0.000022
H         2.528795   -2.345788   -0.000023
H         4.018870   -0.378901    0.000004
H         3.059655    1.896423    0.000028
H         0.595337    2.192230    0.000020
