15
0 2
C         1.790575   -1.010151    0.045999
C         0.447112   -1.299833   -0.010217
C         2.226051    0.310934    0.046997
C         1.295226    1.335932   -0.018632
C        -0.057403    1.060373   -0.070222
C        -0.508678   -0.270891   -0.054648
H         0.090115   -2.320519   -0.012600
H         2.511298   -1.816192    0.087184
H         3.282761    0.537210    0.086918
H         1.628905    2.365275   -0.041381
H        -0.755829    1.879177   -0.171923
N        -1.817102   -0.664352   -0.085322
N        -2.722092    0.308530    0.035956
H        -3.653484   -0.043122    0.182003
H        -2.486715    1.130748    0.579701
