8
0 2
C        -0.000000    1.092682   -0.000000
N         1.153590    0.368265   -0.000000
C         0.732890   -0.870241   -0.000000
C        -0.732891   -0.870240    0.000000
N        -1.153589    0.368268    0.000000
H         0.000002    2.172643   -0.000000
H         1.399299   -1.720788   -0.000000
H        -1.399302   -1.720786    0.000000
