16
0 1
N        -1.341985   -0.112407   -0.881771
C        -0.459451   -1.171346   -0.449279
N         1.176584    0.362548    0.599329
N        -2.363425    0.280581   -0.071141
H        -0.985882    0.674428   -1.402197
N         2.392110    0.255754   -0.014949
O        -2.693243   -0.480906    0.815916
O        -2.872802    1.350146   -0.326916
O         2.586241   -0.738768   -0.682469
O         3.154960    1.183128    0.138986
C         0.371649   -0.829809    0.780466
H         0.192493   -1.383827   -1.293210
H         1.002734   -1.683022    1.032988
H        -0.286738   -0.628159    1.623251
H         1.212138    1.073538    1.313094
H        -1.052169   -2.060159   -0.245463
