13
0 2
C        -1.178008   -0.117580   -0.124606
C         0.049563    0.708076   -0.404628
C         1.169365   -0.278278   -0.110541
N         0.634809   -1.532385    0.225665
N        -0.682578   -1.385096    0.199982
H        -1.275751   -2.169064    0.432736
C         0.128632    1.997564    0.398764
H         0.105151    1.793437    1.469027
H        -0.711251    2.644485    0.153417
H         1.058742    2.513441    0.170322
O         2.349486   -0.060135   -0.140246
O        -2.340378    0.166004   -0.145373
H         0.067317    0.934435   -1.474012
