20
0 2
C         3.040717   -1.006495    0.000002
C         1.681099   -1.243017    0.000000
C         3.524401    0.292929    0.000003
C         2.634216    1.356922    0.000001
C         1.271178    1.138395   -0.000001
C         0.793720   -0.169399   -0.000001
H         1.298536   -2.256018    0.000000
H         3.727665   -1.841860    0.000003
H         4.590073    0.475685    0.000004
H         3.007862    2.372120    0.000002
H         0.565917    1.955322   -0.000002
N        -0.563643   -0.437628   -0.000002
N        -1.481573    0.489659   -0.000004
C        -2.747472   -0.077559   -0.000004
O        -2.927440   -1.285533    0.000002
C        -3.873031    0.909142    0.000001
H        -3.505637    1.931407   -0.000007
H        -4.496044    0.739568    0.878091
H        -4.496060    0.739559   -0.878075
H        -0.905251   -1.401243   -0.000002
