25
0 2
C         3.381182   -0.876367    1.111925
C         2.112647   -0.849017    0.592454
C         4.321339    0.085079    0.742743
C         3.980241    1.090304   -0.160709
C         2.716580    1.138206   -0.689320
C         1.740331    0.168958   -0.331179
H         1.388477   -1.602086    0.863852
H         3.656329   -1.652416    1.813513
H         4.714459    1.832360   -0.443829
H         2.421831    1.905270   -1.391713
N         0.528942    0.298333   -0.859325
C        -1.775609   -0.164476   -0.254833
C        -2.011130    1.187589   -0.038908
C        -2.788406   -1.087372   -0.022762
C        -4.024413   -0.662111    0.423262
C        -3.250039    1.611410    0.407968
C        -4.255900    0.688093    0.639527
H        -5.224936    1.020988    0.987681
H        -4.811329   -1.382273    0.603199
H        -2.583960   -2.133983   -0.200086
H        -1.223634    1.900832   -0.235502
H        -3.432809    2.664919    0.571988
H         5.318884    0.049989    1.159420
C        -0.451068   -0.668797   -0.710695
O        -0.262554   -1.832616   -0.996262
