29
0 1
C         2.063803   -1.338841   -0.360118
C         0.770540   -0.881693   -0.386843
C         3.109685   -0.472959   -0.043468
C         2.831522    0.853515    0.242369
C         1.518482    1.302190    0.204251
C         0.466721    0.454325   -0.104960
H         2.298869   -2.369690   -0.586749
H        -0.036434   -1.556792   -0.631484
H         3.618294    1.547005    0.496271
H         1.331705    2.338953    0.446556
C        -0.935611    0.917327   -0.115378
C        -1.257380    2.376913   -0.263679
H        -1.692263    2.784046    0.652688
H        -1.980953    2.526228   -1.068199
H        -0.379335    2.963330   -0.510101
N        -1.838791    0.023627    0.000314
N        -3.137426    0.396828   -0.003740
C        -4.158793   -0.511006    0.121231
C        -3.767735   -1.955484    0.228323
H        -3.106369   -2.112079    1.078937
H        -3.221571   -2.269215   -0.660346
H        -4.674353   -2.542159    0.338303
O        -5.303924   -0.117757    0.136155
H        -3.421059    1.366226   -0.056501
O         4.349254   -1.013603   -0.043712
C         5.444063   -0.181749    0.268720
H         6.328468   -0.809746    0.209267
H         5.358218    0.226267    1.278968
H         5.535891    0.640098   -0.445868
