8
0 2
C        -0.071049    0.008060   -0.002759
N        -0.667491    1.179828    0.005929
N         1.292292   -0.168534   -0.063600
N        -0.810700   -1.106198    0.008430
H         1.886125    0.578209    0.248687
H         1.619947   -1.099909    0.126308
H        -1.785142   -0.807431    0.013330
H         0.006657    1.945095   -0.027086
