18
0 1
C         0.526418    1.790457    0.003650
C         1.694795    1.062004   -0.003934
C         1.638776   -0.334478   -0.009281
C        -0.718424    1.175632    0.004830
C        -0.767512   -0.211726   -0.001399
C         0.401890   -0.960005   -0.008122
H         0.577278    2.871614    0.008866
H         2.654625    1.562256   -0.011372
N         2.805968   -1.082431   -0.066184
H         3.636480   -0.622585    0.266086
H         2.733223   -2.035674    0.246585
O        -1.917736   -0.931112    0.000399
H        -1.615705    1.773362    0.010969
C        -3.141929   -0.234179    0.004336
H        -3.247176    0.393091   -0.884480
H        -3.244506    0.388097    0.897025
H        -3.921713   -0.991086    0.003390
H         0.323526   -2.039393   -0.017443
