22
0 1
C        -0.995440   -1.617793   -0.124682
C         0.366694   -1.521242   -0.179630
C        -1.766475   -0.466171   -0.010965
C        -1.182907    0.771439    0.035007
C         0.195115    0.874129   -0.025223
C         1.016716   -0.272433   -0.123431
N         2.367965   -0.214497   -0.115815
H        -1.485854   -2.578345   -0.170616
H        -1.782637    1.663845    0.113897
O         3.050287   -1.353752   -0.490066
H         2.816347    0.653804   -0.371954
N         0.748553    2.216446    0.004920
O         1.958420    2.343390   -0.139041
O        -0.004616    3.148179    0.163931
C         3.806173   -1.858451    0.605736
H         4.546244   -1.127588    0.934901
H         4.306968   -2.746527    0.227686
H         3.152983   -2.121079    1.439510
N        -3.220006   -0.573832    0.050552
O        -3.699227   -1.688447    0.006016
O        -3.860121    0.451635    0.142869
H         0.973166   -2.405840   -0.281569
