12
0 1
C        -1.183753    1.038487    0.000000
C        -1.221989   -0.304399    0.000000
N         0.000000    1.715355   -0.000000
C         1.183753    1.038487   -0.000000
C         1.221989   -0.304399   -0.000000
C        -0.000000   -1.100974    0.000000
H         0.000000    2.718998   -0.000000
H        -2.074212    1.651341    0.000000
H        -2.168227   -0.824971    0.000000
O        -0.000000   -2.322804    0.000000
H         2.074212    1.651341   -0.000000
H         2.168227   -0.824971   -0.000000
