16
0 1
C         0.659832   -1.775661   -0.023880
C         1.951042   -1.298594    0.021167
C         2.209084    0.071960    0.049500
C        -0.426630   -0.914604   -0.019981
C        -0.162804    0.445004    0.015642
C         1.124934    0.939733    0.035309
H         2.776279   -1.999061    0.029791
N         3.499557    0.552789    0.136077
H         4.235324   -0.068190   -0.152956
H         3.647925    1.509761   -0.134171
H         0.476593   -2.839569   -0.068823
N        -1.237671    1.446323    0.040307
O        -1.087307    2.428729   -0.655999
O        -2.179254    1.243892    0.769798
Cl        -2.013952   -1.576213   -0.136792
H         1.267600    2.010907    0.040000
