27
0 1
C         3.223813   -1.351908    0.421755
C         1.900539   -1.738012    0.351080
C         3.595430   -0.047886    0.143839
C         2.633836    0.882510   -0.227693
C         1.307231    0.487274   -0.316655
C         0.922656   -0.817390   -0.020177
H         1.613484   -2.755399    0.586416
H         3.974703   -2.077639    0.705901
H         0.564899    1.199855   -0.646916
N        -0.393978   -1.253132   -0.133638
C        -1.568460   -0.515309   -0.034803
C        -1.654087    0.672752    0.688116
C        -2.721426   -1.011640   -0.642156
C        -2.858967    1.345529    0.779567
C        -4.000948    0.850579    0.173288
C        -3.922718   -0.339616   -0.531104
H        -4.803931   -0.745973   -1.010093
H        -2.664652   -1.931658   -1.211261
H        -2.904691    2.265872    1.347268
H        -4.939267    1.381670    0.252252
H        -0.782944    1.057337    1.196742
H        -0.512096   -2.236351   -0.301267
C         3.015414    2.304852   -0.521319
H         4.030729    2.369641   -0.910840
H         2.972259    2.912269    0.385423
H         2.340776    2.754728   -1.249019
H         4.634701    0.247158    0.208433
