11
0 1
N         0.031339    1.076445   -0.166234
C         0.858041   -0.006223   -0.012383
O         0.083532   -1.119426    0.084824
C        -1.287254   -0.769151   -0.108953
C        -1.338845    0.737424    0.142124
H         0.421494    1.985567    0.009007
H        -1.894450   -1.346918    0.582527
H        -1.567940   -1.013911   -1.134512
O         2.050805   -0.022697    0.030009
H        -2.046974    1.237474   -0.516678
H        -1.597858    0.967356    1.179904
