17
0 2
C        -1.525231   -1.547085    0.000001
C        -2.846808   -1.206921   -0.000002
C        -3.241768    0.144075   -0.000003
C        -2.301186    1.132351   -0.000002
C        -0.929265    0.811417   -0.000000
C        -0.534822   -0.544939    0.000002
N         0.773459   -0.913531    0.000008
C         1.678901    0.015592    0.000002
H        -4.293948    0.394332   -0.000005
H        -3.602341   -1.981394   -0.000004
H        -2.595197    2.174625   -0.000003
S         3.344945   -0.534841    0.000002
C         0.093822    1.787036   -0.000002
C         1.395069    1.405123   -0.000004
H        -0.173218    2.836674   -0.000004
H         2.200184    2.126436   -0.000010
H        -1.201083   -2.578390    0.000002
