17
0 1
C         2.812780   -0.276513    0.005401
C         2.139966    0.925312    0.009114
C         0.744319    0.972494    0.000061
C         2.119187   -1.477000   -0.008891
C         0.740024   -1.447974   -0.016955
C         0.048899   -0.245465   -0.011356
H         3.894902   -0.276262    0.011554
H         2.692336    1.856668    0.021179
N         0.103620    2.188742    0.049956
H         0.659339    2.995405   -0.172581
H         0.178937   -2.370908   -0.027783
H        -0.848811    2.242903   -0.264280
H         2.645648   -2.420318   -0.014062
C        -1.444960   -0.253953    0.006255
F        -1.959163   -1.481393   -0.111271
F        -1.948776    0.274051    1.137555
F        -1.970835    0.481777   -1.004673
