24
0 2
C        -0.000001    1.149227    0.000002
N        -0.000000    2.399137    0.000004
C         1.293035    0.405595    0.039326
C        -1.293035    0.405593   -0.039325
C        -1.415595   -0.759734   -0.785900
C        -2.396764    0.901012    0.644324
C        -2.630140   -1.418670   -0.850698
C        -3.726779   -0.924016   -0.164500
C        -3.607413    0.235688    0.583635
C         2.396760    0.901009   -0.644332
C         1.415600   -0.759727    0.785909
C         2.630145   -1.418663    0.850705
C         3.726779   -0.924013    0.164497
C         3.607409    0.235685   -0.583646
H         4.460817    0.622980   -1.123931
H         2.293720    1.806500   -1.225890
H         2.720090   -2.321960    1.439099
H         4.674396   -1.443899    0.211105
H         0.559622   -1.147549    1.321014
H        -0.559614   -1.147559   -1.320998
H        -2.720082   -2.321971   -1.439086
H        -4.674395   -1.443903   -0.211110
H        -4.460824    0.622986    1.123912
H        -2.293728    1.806507    1.225876
