12
0 2
N        -0.113018   -1.205798   -0.051868
C        -0.878130   -0.038741   -0.002923
C         0.002077    1.190904    0.147402
C         1.393059    0.670406   -0.190424
C         1.261574   -0.832671    0.106959
H         2.190594    1.141269    0.380042
H         1.610200    0.818231   -1.248571
H        -0.069347    1.527853    1.184388
H        -0.355986    2.000782   -0.483405
O        -2.084872   -0.056526   -0.060401
H         1.527660   -1.057242    1.151343
H         1.895507   -1.477490   -0.503595
