12
0 1
C        -1.195188    1.103014   -0.000002
C         0.001629    1.696397    0.000000
C        -1.278236   -0.348310   -0.000003
N        -0.032858   -0.984171   -0.000004
C         1.210780   -0.400312   -0.000016
N         1.166976    0.980159   -0.000002
H        -0.044098   -1.994112    0.000006
H         2.063249    1.437052    0.000006
O         2.245197   -1.019743    0.000011
O        -2.294727   -0.999704    0.000007
H        -2.113904    1.665108    0.000002
H         0.118267    2.770879    0.000007
