29
0 1
C         0.259928    0.023164    1.281265
C        -1.169668    0.568244    1.246628
C        -1.930157    0.143041    0.000000
H        -1.118016    1.659891    1.269281
H        -1.695296    0.251607    2.149884
C        -1.169668    0.568244   -1.246628
H        -2.923571    0.595319    0.000000
H        -2.089938   -0.937585    0.000000
C         0.259928    0.023164   -1.281265
H        -1.118016    1.659891   -1.269281
H        -1.695296    0.251607   -2.149884
N         0.896635    0.333057   -0.000000
C         1.058143    0.767403    2.347864
H         1.097538    1.830231    2.114047
H         2.082773    0.391181    2.396288
H         0.609091    0.636539    3.333420
C         0.259928   -1.469228    1.649052
H        -0.404091   -2.058381    1.022108
H        -0.059163   -1.603808    2.683936
H         1.265210   -1.883403    1.553406
C         1.058143    0.767403   -2.347864
H         1.097538    1.830231   -2.114047
H         0.609091    0.636539   -3.333420
H         2.082773    0.391181   -2.396288
C         0.259928   -1.469228   -1.649052
H        -0.404091   -2.058381   -1.022108
H         1.265210   -1.883403   -1.553406
H        -0.059163   -1.603808   -2.683936
H         1.861947    0.029911   -0.000000
