22
0 1
C         0.675652   -1.042288   -0.031325
C        -0.699059   -0.894840   -0.025097
C         1.510710    0.060493   -0.033502
C         0.962922    1.333690   -0.027012
C        -0.404649    1.491745   -0.020593
C        -1.249107    0.382903   -0.018603
H        -1.346727   -1.754351   -0.027991
H         1.099599   -2.036504   -0.041527
H         1.606858    2.201717   -0.034333
H        -0.827994    2.488826   -0.019670
N        -2.626719    0.630512   -0.013876
C        -3.662566   -0.267302   -0.001169
O        -3.513073   -1.466940   -0.007609
C        -5.033927    0.360303    0.043550
H        -5.036566    1.427025   -0.175319
H        -5.452362    0.204169    1.037938
H        -5.672510   -0.157299   -0.668451
H        -2.884491    1.602141   -0.008873
C         2.995749   -0.112315    0.006801
F         3.387796   -1.269447   -0.544988
F         3.635653    0.874736   -0.640944
F         3.468935   -0.108415    1.267925
