10
0 1
C        -1.334538   -0.395027    0.001710
C         0.075243    0.130071    0.000162
H        -1.507082   -1.034281   -0.866322
H        -2.049870    0.422746   -0.025342
H        -1.515518   -0.993334    0.895490
N         1.038325   -0.845206    0.060639
N         0.421523    1.351007   -0.012807
H        -0.387332    1.961282   -0.004164
H         0.813570   -1.772218   -0.251558
H         1.983074   -0.535059   -0.094158
