25
0 2
C        -1.728960   -0.863777   -0.605393
C        -0.409294   -0.475504   -0.651159
C        -2.662020   -0.012191   -0.041764
C        -2.311376    1.235314    0.448017
C        -0.998132    1.632898    0.372373
C        -0.014060    0.776481   -0.147851
H         0.324486   -1.118659   -1.114102
H        -2.050083   -1.815007   -1.001216
H        -0.691499    2.607666    0.723540
N         1.263442    1.257228   -0.220809
C         2.346791    0.474417   -0.053362
C         2.354752   -0.772891    0.616258
C         3.578491    0.983167   -0.525396
C         3.528715   -1.473828    0.765821
C         4.721295   -0.973637    0.254497
C         4.738272    0.259972   -0.389240
H         5.668748    0.655295   -0.773830
H         3.566363    1.950003   -1.008786
H         3.524501   -2.417552    1.294772
H         5.637735   -1.535519    0.373276
H         1.439873   -1.151375    1.047625
H        -3.073058    1.875585    0.865407
N        -4.061633   -0.433967    0.020884
O        -4.341807   -1.529692   -0.420052
O        -4.861514    0.335219    0.512050
