20
0 2
C         2.260735   -1.193018    0.146617
C         1.587104   -0.098391   -0.655191
C         2.417590    1.121647   -0.275210
N         3.435821    0.755589    0.615354
N         3.299617   -0.545360    0.818798
H         3.936263   -1.022358    1.441855
C         0.097919   -0.012964   -0.408232
O         2.272897    2.248384   -0.663270
O         2.026633   -2.361776    0.235046
H         1.768180   -0.305929   -1.713706
C        -0.492221    1.091176    0.186238
C        -1.857437    1.120753    0.415400
C        -2.632794    0.039745    0.046639
C        -2.061621   -1.070202   -0.550100
C        -0.699584   -1.090156   -0.775308
H        -0.249194   -1.962654   -1.228547
H        -2.680020   -1.909010   -0.834868
H         0.102598    1.950559    0.458688
H        -2.317066    1.983454    0.875401
Cl        -4.342542    0.073525    0.329576
