19
0 2
C         1.293201   -1.099501    0.158176
C        -0.050677   -0.861489    0.091757
C         2.206756   -0.041542    0.039680
C         1.750691    1.270833   -0.149755
C         0.409287    1.519813   -0.216837
C        -0.540071    0.465314   -0.096867
H        -0.753628   -1.677618    0.162259
H         1.665100   -2.104425    0.300096
H         2.467738    2.074174   -0.241602
H         0.027366    2.520229   -0.361658
N        -1.821458    0.792275   -0.144854
C        -2.833918   -0.162454   -0.144490
O        -2.899264   -1.032015   -0.979699
C        -3.874830    0.060611    0.912914
H        -3.409052    0.113902    1.897965
H        -4.602538   -0.745324    0.882928
H        -4.368793    1.016442    0.738085
C         3.605617   -0.302524    0.113581
N         4.731683   -0.511649    0.174936
