15
0 2
C         1.094328    0.890641    0.000010
N         0.000000    1.646527   -0.000004
C        -1.094328    0.890641    0.000002
N        -0.649871   -0.545767    0.000001
N         0.649871   -0.545767    0.000004
O        -2.273055    1.105488    0.000000
O         2.273055    1.105488   -0.000014
C         1.500126   -1.699693   -0.000006
H         1.333160   -2.306360    0.891147
H         2.518251   -1.319365   -0.000005
H         1.333157   -2.306347   -0.891168
C        -1.500127   -1.699693    0.000010
H        -2.518251   -1.319365    0.000008
H        -1.333157   -2.306347    0.891171
H        -1.333159   -2.306360   -0.891144
