18
0 1
N        -1.734412   -0.888464    0.000001
C        -0.947886    0.219321   -0.000001
H        -2.730695   -0.758273   -0.000013
H        -1.362982   -1.818698   -0.000023
C         0.566322   -0.029048    0.000000
C         1.279573    1.317480   -0.000000
H         1.011057    1.903438    0.877015
H         1.011060    1.903437   -0.877017
C         0.958872   -0.815260    1.255003
H         0.650776   -0.289184    2.159040
H         2.042264   -0.937686    1.288527
C         0.958875   -0.815261   -1.255001
H         0.515080   -1.811200   -1.277955
H         0.650777   -0.289188   -2.159040
O        -1.432199    1.330135    0.000002
H         0.515073   -1.811196    1.277959
H         2.359258    1.161013    0.000002
H         2.042267   -0.937684   -1.288525
