22
0 1
C         1.337075    1.181784    0.003335
C         0.121206    1.863344   -0.004507
C        -1.087109    1.201453   -0.010988
C         1.337756   -0.197110    0.000496
C         0.128697   -0.891475   -0.003880
C        -1.063513   -0.203471   -0.008418
H         0.124311    2.946453   -0.012764
N        -2.313123    1.863164   -0.074824
H        -2.317728    2.779736    0.340873
H        -3.093818    1.299427    0.220058
H         2.256502    1.745893    0.008154
H         0.163889   -1.969827   -0.000812
O        -2.290079   -0.794280   -0.001249
C        -2.351850   -2.201439    0.005846
H        -1.878575   -2.622633   -0.884445
H        -3.407016   -2.461139    0.009379
H        -1.873204   -2.615533    0.896907
O         2.456452   -0.976002    0.004271
C         3.704860   -0.328848    0.003497
H         3.833099    0.292628   -0.887324
H         4.456671   -1.113813    0.003636
H         3.834019    0.293484    0.893657
