21
0 1
C         2.974781   -0.766995    0.312779
C         1.741400   -1.226953   -0.102410
C         3.219396    0.593375    0.422039
C         2.208482    1.484460    0.111725
C         0.966752    1.033688   -0.304515
C         0.727293   -0.327789   -0.413576
H         1.556191   -2.290840   -0.186574
H         3.752118   -1.479055    0.556915
H         4.185817    0.951709    0.748357
H         2.381785    2.549368    0.196330
H         0.181147    1.737934   -0.535726
N        -0.494601   -0.839494   -0.893232
N        -1.599165   -0.013744   -0.812556
C        -2.425159   -0.070698    0.274584
O        -2.166863   -0.760608    1.234029
C        -3.661591    0.782274    0.183820
H        -3.739303    1.330926   -0.753673
H        -3.648876    1.490807    1.010402
H        -4.537186    0.146896    0.305728
H        -0.711019   -1.744133   -0.495504
H        -1.937531    0.355747   -1.684637
