21
0 2
C        -0.293359   -1.672286   -0.000001
C         1.071927   -1.845445   -0.000001
C         1.954158   -0.730539   -0.000001
C        -0.845839   -0.397175    0.000000
C         0.011417    0.741766    0.000000
C         1.362835    0.572679   -0.000001
H         1.491812   -2.843045   -0.000002
N         3.270841   -0.819866   -0.000002
H         3.549668   -1.800487   -0.000002
H        -0.938300   -2.537848   -0.000001
O        -2.160767   -0.132153    0.000001
C        -3.069210   -1.212601    0.000003
H        -2.947858   -1.831745   -0.891790
H        -4.060872   -0.769906    0.000005
H        -2.947854   -1.831745    0.891795
H         2.042137    1.410471   -0.000001
O        -0.625506    1.930224    0.000001
C         0.165229    3.098241    0.000001
H        -0.530208    3.932666    0.000002
H         0.796411    3.149145   -0.890532
H         0.796412    3.149144    0.890533
