21
0 1
C         1.421268    1.261982   -0.080259
C         0.738998    0.116681    0.661716
C         1.628673   -1.073484    0.353408
N         2.606294   -0.644451   -0.523156
N         2.596994    0.764940   -0.612069
H         2.862774    1.136493   -1.513625
H         3.520308   -1.059210   -0.406056
C        -0.720639   -0.025741    0.301423
O         1.564083   -2.186544    0.798269
O         1.038032    2.388689   -0.222753
H         0.828937    0.304918    1.735014
C        -1.190792   -1.104658   -0.431237
C        -2.532392   -1.187187   -0.767333
C        -3.411820   -0.194858   -0.375042
C        -2.945203    0.883991    0.358521
C        -1.607559    0.968143    0.695701
H        -1.242530    1.819368    1.253894
H        -4.459399   -0.262004   -0.636491
H        -3.626226    1.664656    0.669994
H        -0.518340   -1.898071   -0.726055
H        -2.888659   -2.035946   -1.335611
