25
0 1
C        -0.022797    1.137858    0.056214
N        -0.080304    2.403888    0.128151
C         1.266716    0.390396    0.051851
C        -1.292007    0.368247   -0.019859
H         0.850660    2.807839    0.207518
C        -1.344101   -0.890879   -0.606585
C        -2.464049    0.932451    0.474580
C        -2.545731   -1.572088   -0.701648
C        -3.704602   -1.006741   -0.200087
C        -3.660180    0.247751    0.389616
C         2.305244    0.802706   -0.774543
C         1.469439   -0.691382    0.901557
C         2.693649   -1.333961    0.937568
C         3.722937   -0.917732    0.109004
C         3.524742    0.149203   -0.750746
H         4.321004    0.472097   -1.408087
H         2.147349    1.631513   -1.452661
H         2.844532   -2.164553    1.614166
H         4.677079   -1.427086    0.131114
H         0.665202   -1.023161    1.544442
H        -0.442979   -1.338062   -1.002514
H        -2.575033   -2.547158   -1.169405
H        -4.642646   -1.541853   -0.267617
H        -4.564084    0.692587    0.784232
H        -2.414508    1.915643    0.920229
