16
0 2
C         1.194884    0.227039    0.000002
C        -0.063337   -0.607804    0.000004
C        -1.140213    0.472306   -0.000006
N        -0.560171    1.750396   -0.000014
N         0.750823    1.552291   -0.000008
H         1.374341    2.347151   -0.000012
C        -0.148107   -1.462775   -1.262308
H        -0.082452   -0.856383   -2.165859
H        -1.099733   -1.991513   -1.274602
H         0.666277   -2.185761   -1.272688
C        -0.148113   -1.462761    1.262324
H        -0.082463   -0.856358    2.165869
H         0.666270   -2.185747    1.272716
H        -1.099740   -1.991498    1.274620
O        -2.328548    0.297396   -0.000006
O         2.347580   -0.096737    0.000007
