23
0 1
C         0.432194    0.252498   -0.110535
C        -1.012820    0.606560   -0.227935
N        -1.920144   -0.397221    0.012003
N        -1.414189    1.758533   -0.602044
H        -0.625634    2.346782   -0.847631
C         0.954469   -0.838128   -0.795563
C         2.308144   -1.115916   -0.739880
C         3.152322   -0.314678    0.012220
C         2.637228    0.769569    0.701820
C         1.284126    1.054884    0.636142
H         0.291174   -1.462499   -1.379510
H         2.707017   -1.959707   -1.287203
H         4.210307   -0.535520    0.059724
H         3.290691    1.395931    1.294392
H         0.878387    1.902189    1.173422
C        -3.315501   -0.085763   -0.208687
H        -3.727738    0.539112    0.591245
H        -3.877772   -1.018248   -0.253943
H        -3.426130    0.458613   -1.141334
C        -1.687557   -1.375397    1.054415
H        -0.627013   -1.568056    1.176865
H        -2.180163   -2.313105    0.794693
H        -2.088425   -1.036454    2.017584
