21
0 2
C        -1.151133   -1.622353    0.036405
C         0.222153   -1.634062    0.027069
C        -1.821503   -0.409540    0.013310
C        -1.150275    0.799758   -0.012731
C         0.217825    0.774351    0.008141
C         0.950476   -0.429419    0.008518
H        -1.720516   -2.538918    0.052432
H        -1.693070    1.731819   -0.041695
N         2.302353   -0.339245   -0.066119
O         2.863580   -1.549729   -0.042347
N         0.914725    2.065842    0.041820
O         0.618433    2.864974   -0.819321
O         1.701210    2.248153    0.939682
C         4.284374   -1.439764   -0.135828
H         4.659580   -2.458248   -0.099736
H         4.663478   -0.858932    0.702737
H         4.555603   -0.962922   -1.075962
N        -3.286125   -0.400723    0.013643
H         0.762162   -2.567095    0.021183
O        -3.850876   -1.473500    0.024082
O        -3.839274    0.677522    0.003696
