19
0 1
C        -0.203221    1.285572   -0.012541
C         1.168354    1.401520   -0.021592
C        -0.800330    0.033755   -0.047048
C        -0.001567   -1.097343   -0.086811
C         1.374476   -0.992068   -0.096105
C         1.976350    0.263426   -0.065172
H         1.626149    2.382996   -0.002099
H        -0.817073    2.175101    0.016371
H        -0.460349   -2.075952   -0.116715
H         1.997585   -1.871876   -0.130583
N         3.350188    0.420263   -0.120163
N         4.162349   -0.680463    0.141308
H         4.933678   -0.711775   -0.508439
H         4.501223   -0.695104    1.095679
H         3.690838    1.319027    0.185822
C        -2.285530   -0.089851    0.015751
F        -2.907491    0.944784   -0.574952
F        -2.743523   -0.127603    1.284774
F        -2.730209   -1.209523   -0.577260
