8
0 1
C        -0.000000    0.141649   -0.000003
O        -0.000001    1.351691    0.000001
N        -1.153777   -0.604976   -0.064174
H        -1.994697   -0.068860    0.065812
H        -1.157543   -1.528031    0.334353
N         1.153778   -0.604973    0.064174
H         1.994698   -0.068856   -0.065808
H         1.157548   -1.528030   -0.334351
