16
0 2
C         0.267682   -0.000000    0.000000
C         1.763222   -0.000001    0.000001
N         2.461508    0.963556    0.579633
N         2.461507   -0.963556   -0.579634
H         1.828397   -1.638398   -1.010379
H         1.828399    1.638400    1.010377
C        -0.437382    1.170459   -0.253009
C        -1.820717    1.169226   -0.259947
C        -2.515490    0.000000   -0.000000
C        -1.820718   -1.169225    0.259947
C        -0.437382   -1.170459    0.253010
H         0.099719    2.085297   -0.469622
H        -2.357743    2.083782   -0.472806
H        -3.597138    0.000000   -0.000001
H        -2.357744   -2.083782    0.472806
H         0.099718   -2.085297    0.469623
