28
0 1
N        -0.000000   -0.000003    0.789938
Si         1.580215    0.008350    0.084020
C         1.615897    1.173670   -1.378298
H         0.909360    0.873796   -2.154114
H         2.608123    1.190176   -1.833304
H         1.366541    2.191809   -1.076445
C         2.080859   -1.695334   -0.504608
H         1.392878   -2.066709   -1.265714
H         2.075990   -2.409574    0.320630
H         3.083538   -1.689141   -0.937103
C         2.779578    0.582754    1.397060
H         2.541280    1.592278    1.735667
H         3.802835    0.590456    1.017589
H         2.759886   -0.077016    2.267059
Si        -1.580216   -0.008351    0.084020
C        -2.080874    1.695344   -0.504567
H        -2.076013    2.409564    0.320687
H        -3.083551    1.689154   -0.937065
H        -1.392893    2.066743   -1.265663
C        -2.779577   -0.582797    1.397042
H        -2.759891    0.076951    2.267058
H        -2.541272   -1.592328    1.735624
H        -3.802833   -0.590496    1.017569
C        -1.615883   -1.173634   -1.378328
H        -0.909348   -0.873734   -2.154136
H        -2.608108   -1.190138   -1.833335
H        -1.366519   -2.191779   -1.076500
H        -0.000000    0.000009    1.799563
