30
0 2
C        -3.505528   -1.181370   -0.809257
C        -2.160807   -0.952031   -0.676349
C        -4.430389   -0.481873   -0.034025
C        -3.996733    0.467228    0.893581
C        -2.659789    0.715076    1.044968
C        -1.687214    0.015402    0.265886
H        -1.432543   -1.484098   -1.271452
H        -3.853825   -1.913891   -1.525163
H        -4.719810    1.005125    1.491862
H        -2.291601    1.441376    1.756056
N        -0.418690    0.318022    0.475068
P         0.911189   -0.306382   -0.290387
O         0.781036   -1.337377   -1.320325
O         1.752470   -0.752568    0.976789
O         1.622974    0.981946   -0.863694
C         2.754283   -1.777010    0.864746
C         4.055211   -1.224693    0.333061
H         2.371849   -2.569303    0.222039
H         2.873531   -2.166236    1.874290
H         3.933763   -0.857031   -0.685502
H         4.812368   -2.009900    0.323861
H         4.413975   -0.408377    0.960230
C         1.941064    2.125996   -0.056767
C         1.040664    3.281000   -0.414565
H         2.984920    2.359518   -0.266532
H         1.853478    1.867270    0.998198
H         1.116877    3.510824   -1.476902
H         1.327442    4.167267    0.153432
H         0.004295    3.040212   -0.182009
H        -5.488127   -0.675543   -0.151897
