27
0 1
C         3.318526    0.335828    0.953148
C         2.340288   -0.595116    0.654308
C         3.588004    1.381317    0.084895
C         2.863769    1.499074   -1.088693
C         1.866209    0.587239   -1.383611
C         1.605686   -0.463136   -0.515497
H         2.134135   -1.420955    1.318289
H         3.886470    0.232300    1.868051
H         3.065301    2.311302   -1.774089
H         1.280086    0.692809   -2.288046
N         0.595711   -1.405159   -0.839987
C        -1.509709   -0.030970    0.176535
C        -1.113479    0.880083    1.142290
C        -2.466864    0.296120   -0.770563
C        -3.031052    1.558541   -0.750652
C        -1.680683    2.141782    1.149867
C        -2.635193    2.480623    0.205186
H        -3.079107    3.467113    0.217879
H        -3.786404    1.820923   -1.478830
H        -2.773708   -0.442401   -1.497722
H        -0.379037    0.594262    1.880805
H        -1.379186    2.860262    1.899733
H         4.362296    2.098637    0.320398
S        -0.738411   -1.617860    0.110673
H         0.341250   -1.443225   -1.816965
O        -0.286020   -1.934373    1.425753
O        -1.576543   -2.500312   -0.636208
