28
0 1
C        -1.997343   -0.998341   -0.837919
C        -0.702392   -0.538114   -0.897768
C        -2.971541   -0.284415   -0.146570
C        -2.622833    0.895744    0.488375
C        -1.307108    1.337645    0.446616
C        -0.333113    0.637352   -0.243687
N         0.973287    1.140706   -0.328746
H        -2.286385   -1.910015   -1.342608
H         0.036289   -1.084740   -1.466999
H        -3.353859    1.475050    1.031374
H        -1.037759    2.248087    0.967540
C         2.148529    0.440550   -0.087648
H         1.056000    2.141236   -0.291473
C         3.366055    1.076491   -0.337413
C         2.167672   -0.862244    0.405784
C         3.373466   -1.504146    0.628035
C         4.578146   -0.871214    0.378297
C         4.561575    0.429458   -0.101045
H         1.241027   -1.368037    0.631772
H         3.364836   -2.515622    1.013356
H         3.363708    2.087052   -0.728146
H         5.515107   -1.380251    0.556037
H         5.491534    0.945601   -0.301432
O        -4.221515   -0.815775   -0.155130
C        -5.240011   -0.127541    0.531117
H        -5.016368   -0.042541    1.598080
H        -6.145307   -0.714197    0.400948
H        -5.396330    0.872283    0.116772
