21
0 1
C         1.043291   -1.077952   -0.001793
C        -0.327443   -0.913390   -0.009407
C         1.868788    0.028005    0.000253
C         1.354918    1.311263   -0.005384
C        -0.009980    1.477012   -0.012976
C        -0.864417    0.372731   -0.014849
H        -0.984298   -1.765699   -0.012219
H         1.479815   -2.064915    0.002478
H         2.025489    2.156484   -0.003686
H        -0.425805    2.476912   -0.017314
N        -2.235528    0.632127   -0.022822
C        -3.283064   -0.258023   -0.011763
O        -3.142087   -1.457319   -0.016703
C        -4.643524    0.390420    0.039475
H        -4.655992    1.397858   -0.374530
H        -4.969007    0.438674    1.079585
H        -5.345452   -0.236490   -0.503292
H        -2.485555    1.606227   -0.022029
N         3.319592   -0.157654    0.008364
O         4.015333    0.837340    0.010063
O         3.744373   -1.293866    0.012999
