11
0 2
C        -0.955219   -1.219511    0.000000
C        -1.742566   -0.041269    0.000001
N         0.340412   -1.237763   -0.000001
C         1.012014   -0.021520   -0.000001
C         0.261559    1.215639    0.000000
C        -1.108692    1.191972    0.000001
O         2.243126   -0.003542   -0.000000
H        -1.457459   -2.182990    0.000002
H        -2.820762   -0.120207    0.000002
H         0.829960    2.134728   -0.000000
H        -1.682201    2.109274    0.000002
