25
0 1
C         0.186588   -0.204830   -0.508298
C        -0.324243    1.072779   -0.620673
C        -1.672424    1.284278   -0.421569
C        -0.639308   -1.263846   -0.204913
C        -1.993617   -1.056366   -0.008288
C        -2.523639    0.223446   -0.115120
H         0.333088    1.899243   -0.850559
H        -2.074971    2.286404   -0.507448
H        -0.218555   -2.256964   -0.124351
H        -2.649678   -1.879047    0.229870
N        -3.888928    0.475095    0.027444
N        -4.657876   -0.488587    0.684075
H        -5.565197   -0.562928    0.249596
H        -4.755373   -0.301001    1.675313
H        -4.099111    1.433418    0.265488
O         1.533238   -0.463001   -0.760642
C         2.460103    0.008329    0.106633
O         2.196763    0.648831    1.080684
C         3.839389   -0.391918   -0.338129
C         4.929325    0.119258    0.582867
H         3.970705   -0.028476   -1.359539
H         3.853588   -1.481468   -0.411920
H         4.916597    1.206727    0.638083
H         5.908794   -0.195906    0.224446
H         4.794687   -0.258981    1.594985
