15
0 1
C        -1.275850   -1.419960    0.000001
C        -2.480031   -0.720535   -0.000000
C        -2.506108    0.665649   -0.000000
C        -1.333534    1.415065    0.000000
C        -0.146903    0.718417    0.000001
C        -0.131485   -0.668537    0.000001
H        -1.238100   -2.499593    0.000000
H        -1.358805    2.495824    0.000000
H        -3.410312   -1.270958   -0.000001
H        -3.457779    1.178711   -0.000001
O         1.166448   -1.109882    0.000001
N         1.186944    1.096164    0.000001
C         1.999357   -0.011697   -0.000002
O         3.188495   -0.074335   -0.000002
H         1.564162    2.026189    0.000002
