16
0 1
C        -2.862344   -0.251433   -0.042087
C        -2.324215    0.989046   -0.336093
C        -0.954648    1.179175   -0.286191
C        -2.023894   -1.304698    0.287527
C        -0.655471   -1.120766    0.322413
C        -0.106659    0.126228    0.045851
H        -3.933342   -0.400114   -0.077100
H        -2.970803    1.810785   -0.613240
H        -0.543735    2.144611   -0.550724
H        -2.439405   -2.277256    0.514582
H         0.009498   -1.938001    0.561804
C         1.364909    0.318569    0.094476
N         1.762594    1.536839    0.492465
H         1.117171    2.192511    0.896378
H         2.749342    1.721571    0.551375
S         2.440440   -0.851794   -0.327857
