28
0 1
C         2.177842   -0.895178   -0.052170
C         0.789532   -0.844922   -0.067020
C         2.928434    0.265843    0.014325
C         2.273250    1.490375    0.066959
C         0.899045    1.539305    0.053777
C         0.134952    0.374506   -0.013636
H         0.214189   -1.753479   -0.114818
H         2.655397   -1.862368   -0.093588
H         2.862151    2.395595    0.119394
H         0.404398    2.503079    0.097005
N        -1.263067    0.528956   -0.032043
C        -2.219732   -0.456595   -0.013319
O        -1.951618   -1.642940    0.043881
N        -3.514048    0.001156   -0.074036
H        -1.572720    1.482144   -0.016574
C        -4.587752   -0.950331    0.111093
H        -4.173868   -1.951310    0.061585
H        -5.337186   -0.831805   -0.673601
H        -5.075319   -0.816666    1.081608
C        -3.862356    1.401710   -0.078203
H        -3.654845    1.895855    0.877959
H        -4.928749    1.493125   -0.269816
H        -3.350836    1.943392   -0.876705
O         4.287290    0.310744    0.033586
C         4.989997   -0.907949   -0.018008
H         4.751981   -1.543728    0.839181
H         6.045895   -0.652253    0.008151
H         4.774667   -1.455382   -0.939750
