30
0 1
C        -2.750816   -1.146037   -0.550153
C        -1.475806   -0.610983   -0.534709
C        -3.847320   -0.446432   -0.065912
C        -3.618029    0.828319    0.435358
C        -2.348733    1.370287    0.474520
C        -1.253479    0.658866   -0.009887
H        -0.654375   -1.172554   -0.954269
H        -2.895581   -2.135044   -0.968473
H        -2.196902    2.360343    0.887469
N        -0.000000    1.263525    0.000004
C         1.253479    0.658866    0.009891
C         2.348731    1.370286   -0.474522
C         1.475808   -0.610981    0.534716
C         3.618028    0.828319   -0.435363
C         3.847320   -0.446432    0.065909
C         2.750818   -1.146035    0.550157
H         2.895585   -2.135041    0.968479
H         0.654378   -1.172550    0.954280
H         4.449883    1.409814   -0.814472
H         2.196898    2.360341   -0.887473
H        -0.000000    2.267685   -0.000000
H        -4.449887    1.409816    0.814461
C        -5.221374   -1.051125   -0.062262
H        -5.333974   -1.781551   -0.863228
H        -5.990271   -0.289370   -0.190901
H        -5.425705   -1.565207    0.879875
C         5.221374   -1.051124    0.062256
H         5.425702   -1.565208   -0.879880
H         5.333977   -1.781548    0.863223
H         5.990272   -0.289369    0.190891
