14
0 1
C        -1.489157   -0.104726    0.000004
N        -0.759340    1.052210   -0.000001
C         0.625911    0.832310    0.000004
N         0.794135   -0.517123    0.000002
C        -0.460626   -1.224538    0.000002
H        -1.155588    1.977225   -0.000007
H        -0.594928   -1.850422   -0.885952
H        -0.594927   -1.850424    0.885954
O        -2.683921   -0.213444   -0.000002
C         2.082427   -1.154263   -0.000002
H         2.841726   -0.376659   -0.000001
H         2.211546   -1.777311   -0.887629
H         2.211549   -1.777316    0.887620
O         1.469637    1.690518   -0.000003
