19
0 1
C        -0.800330    0.033756   -0.047047
C        -0.203221    1.285572   -0.012541
C         1.168355    1.401519   -0.021590
C        -0.001567   -1.097342   -0.086810
C         1.374476   -0.992068   -0.096103
C         1.976352    0.263425   -0.065171
H        -0.817071    2.175102    0.016372
H         1.626151    2.382996   -0.002097
H        -0.460349   -2.075952   -0.116713
H         1.997583   -1.871878   -0.130580
N         3.350189    0.420262   -0.120164
N         4.162354   -0.680462    0.141308
H         4.501231   -0.695101    1.095677
H         4.933679   -0.711778   -0.508444
H         3.690840    1.319028    0.185815
C        -2.285532   -0.089850    0.015752
F        -2.907492    0.944792   -0.574935
F        -2.743526   -0.127625    1.284773
F        -2.730212   -1.209510   -0.577280
