27
0 2
C         3.492503    0.501504   -0.133670
C         4.386178   -0.552056   -0.148417
C         3.948935   -1.841420    0.104207
C         2.612046   -2.061090    0.387688
C         1.712604   -1.010616    0.420621
C         2.149139    0.278355    0.144433
N         1.293705    1.394972    0.178790
C        -0.007653    1.486666   -0.169911
N        -0.567493    0.392654   -0.732405
C        -1.714123   -0.180032   -0.349480
C        -2.354482    0.071177    0.888337
C        -3.499094   -0.610440    1.220490
C        -4.043598   -1.548180    0.346367
C        -3.425005   -1.810589   -0.872735
C        -2.275094   -1.144584   -1.218210
H         5.428490   -0.363662   -0.367991
H         4.646218   -2.667635    0.086598
H         3.831117    1.506709   -0.351175
H         2.261159   -3.062033    0.600598
H         0.681025   -1.194686    0.674409
H         1.713330    2.286023    0.393560
S        -0.815884    2.941548   -0.094935
H        -1.770054   -1.329483   -2.155867
H        -4.947731   -2.076175    0.617833
H        -3.849966   -2.541140   -1.547618
H        -1.934789    0.807881    1.557012
H        -3.982279   -0.416135    2.168593
