21
0 2
C         1.205338   -0.505494    0.000000
C         1.228303    0.868726   -0.000000
C         0.001841    1.596878   -0.000000
C        -0.010854   -1.194082    0.000000
C        -1.219193   -0.495233   -0.000000
C        -1.227771    0.879830   -0.000001
H         2.153792    1.424327   -0.000000
N        -0.063011    2.918715   -0.000001
H         0.878064    3.312013   -0.000001
O         2.306325   -1.292445    0.000001
C         3.570982   -0.668467    0.000002
H         3.709368   -0.051555   -0.891422
H         4.304061   -1.470052    0.000003
H         3.709366   -0.051554    0.891425
H        -2.134009    1.463412   -0.000001
O        -2.329239   -1.268707   -0.000000
C        -3.585868   -0.626009   -0.000001
H        -4.329691   -1.417658   -0.000000
H        -3.714479   -0.006657   -0.890791
H        -3.714479   -0.006657    0.890790
H        -0.014284   -2.274298    0.000000
