26
0 1
C         1.838459   -1.103319   -0.029397
C         0.463684   -0.984935   -0.031101
C         2.629948    0.027673   -0.000164
C         2.072248    1.292414    0.027800
C         0.703160    1.412576    0.026180
C        -0.118896    0.282122   -0.003035
H        -0.165096   -1.857606   -0.051194
H         2.306170   -2.075722   -0.050795
H         2.713540    2.159797    0.050523
H         0.255901    2.398836    0.048138
N        -1.491582    0.508437   -0.006867
C        -2.510049   -0.431492   -0.000716
O        -2.299809   -1.627501    0.029530
N        -3.767009    0.103374   -0.034283
H        -1.752777    1.476864    0.010891
C        -4.902440   -0.791512    0.055617
H        -4.539248   -1.813018    0.046911
H        -5.572936   -0.642457   -0.792755
H        -5.461416   -0.619915    0.978768
C        -4.032679    1.524283   -0.052202
H        -3.734395    2.019828    0.877373
H        -5.102336    1.673850   -0.171012
H        -3.546250    2.020785   -0.895364
N         4.083635   -0.110162    0.001437
O         4.547155   -1.231563   -0.023338
O         4.748019    0.906607    0.027385
