28
0 1
C        -2.500462   -1.318315    0.317642
C        -1.199285   -0.870643    0.372511
C        -3.543690   -0.468626   -0.043306
C        -3.230034    0.845577   -0.347352
C        -1.923775    1.303835   -0.287125
C        -0.885144    0.454468    0.070342
H        -2.717744   -2.350899    0.563594
H        -0.401765   -1.543085    0.653364
H        -4.018279    1.528293   -0.639195
H        -1.723850    2.334047   -0.547106
C         0.518641    0.916530    0.109846
C         0.837275    2.374414    0.277749
H         1.287026    2.791196   -0.627088
H         1.546992    2.516592    1.095846
H        -0.046446    2.956523    0.514426
N         1.421426    0.022157    0.000293
N         2.719546    0.392050    0.028290
C         3.741095   -0.517480   -0.092145
C         3.348098   -1.959216   -0.224316
H         2.699779   -2.102841   -1.087158
H         2.787140   -2.282966    0.651438
H         4.254856   -2.546856   -0.327676
O         4.886678   -0.126565   -0.083559
H         3.004375    1.360112    0.098489
C        -4.957640   -0.967370   -0.086683
H        -5.039963   -1.864533   -0.701671
H        -5.630853   -0.215069   -0.494670
H        -5.311964   -1.226488    0.912814
