9
0 2
N        -1.235874    0.000013    0.000005
C        -0.423452    1.059011   -0.000013
C         0.977024    0.675350    0.000011
C         0.977009   -0.675371   -0.000011
C        -0.423476   -1.059001    0.000006
H        -0.816896    2.066237   -0.000009
H         1.821178    1.345256    0.000020
H        -0.816942   -2.066219    0.000010
H         1.821148   -1.345296   -0.000016
