13
0 1
C         0.918423    0.137696   -0.048867
N         2.068541   -0.459090    0.346081
H         2.891811    0.108836    0.412018
H         2.142986   -1.458931    0.353579
O        -0.047841   -0.782337   -0.227514
O         0.775602    1.323689   -0.208779
C        -1.341133   -0.279303   -0.590670
C        -2.128445    0.146278    0.625157
H        -1.821130   -1.109673   -1.105029
H        -1.212930    0.548298   -1.285801
H        -2.226879   -0.679006    1.330458
H        -3.128523    0.462844    0.325743
H        -1.640287    0.982431    1.123084
