16
0 1
C        -0.853012    1.242157    0.019824
C         0.519822    1.378532   -0.012731
C        -1.416532   -0.020436   -0.003080
C        -0.609434   -1.139863   -0.057293
C         0.766521   -1.004748   -0.090352
C         1.347234    0.258567   -0.071250
H         0.957604    2.369463    0.002190
H        -1.487869    2.115566    0.065466
H        -1.057548   -2.123404   -0.072914
H         1.403015   -1.875009   -0.131754
N         2.725301    0.440552   -0.155629
N         3.546491   -0.647483    0.143427
H         4.335887   -0.671124   -0.484262
H         3.860673   -0.646143    1.106797
H         3.042465    1.336884    0.183004
Cl        -3.146139   -0.196645    0.041540
