29
0 1
C        -1.916219   -0.024463    0.266346
C        -0.000278    1.557482    0.103304
N         1.378053    1.539424    0.221225
N        -0.562176    2.629717   -0.280732
H        -1.568608    2.589619   -0.175999
C        -2.623415    0.367359   -0.866773
C        -3.911460   -0.095222   -1.069628
C        -4.508427   -0.958545   -0.167307
C        -3.798324   -1.360242    0.951704
C        -2.517013   -0.893190    1.172496
H        -2.160586    1.016611   -1.595250
H        -4.448872    0.218088   -1.954967
H        -5.514541   -1.316778   -0.335319
H        -4.247631   -2.036639    1.666688
H        -1.971942   -1.197211    2.057602
C         2.257604    0.465168    0.029098
N        -0.600211    0.379089    0.501875
C         1.927367   -0.662739   -0.717277
C         3.529825    0.553361    0.588794
C         4.449385   -0.461034    0.407218
C         2.848546   -1.684154   -0.873479
C         4.112044   -1.592891   -0.317017
H         2.575246   -2.554161   -1.455962
H         4.828402   -2.391622   -0.450446
H         0.958506   -0.735361   -1.188180
H         3.787794    1.426172    1.175093
H         5.434091   -0.370655    0.846396
H        -0.050472   -0.215768    1.098189
H         1.771129    2.464758    0.170720
