17
0 1
C        -0.320876   -1.196305   -0.026715
C        -1.698779   -1.199659   -0.012604
C        -2.411155    0.000000   -0.003298
C         0.379556    0.000000   -0.035404
C        -0.320876    1.196305   -0.026715
C        -1.698780    1.199659   -0.012604
H         0.216904   -2.134147   -0.037648
H        -2.235880   -2.139672   -0.015069
N        -3.789579   -0.000000   -0.035587
H        -4.253841   -0.843104    0.253878
H        -4.253841    0.843104    0.253878
C         1.870983    0.000000    0.000947
F         2.394488   -1.080891   -0.600433
F         2.394488    1.080891   -0.600432
F         2.352385   -0.000001    1.261436
H        -2.235880    2.139672   -0.015069
H         0.216904    2.134147   -0.037648
