24
0 1
C        -2.937276   -1.231557   -0.049314
C        -1.561236   -1.074779   -0.057728
C        -3.788496   -0.142653    0.008571
C        -3.246082    1.130631    0.059262
C        -1.876745    1.303239    0.052187
C        -1.020247    0.205522   -0.006330
H        -0.904450   -1.926384   -0.099015
H        -3.346024   -2.232844   -0.089150
H        -3.891468    1.997873    0.105268
H        -1.460985    2.303732    0.092812
N         0.355052    0.479152   -0.017609
C         1.400175   -0.417650   -0.009897
O         1.242291   -1.622932    0.035526
N         2.644280    0.159859   -0.065049
H         0.579593    1.455965    0.007705
H        -4.860698   -0.282494    0.014564
C         3.804504   -0.689989    0.093272
H         3.482285   -1.724521    0.053523
H         4.299957   -0.509452    1.051749
H         4.521272   -0.505887   -0.709167
C         2.861832    1.587122   -0.071150
H         2.604837    2.060997    0.882958
H         2.307103    2.078345   -0.873493
H         3.916357    1.775734   -0.256599
