15
0 2
C         2.080971   -0.722442   -0.000001
C         2.126242    0.662976   -0.000002
C         0.954385    1.411769   -0.000002
C         0.862421   -1.414773    0.000001
C        -0.290214   -0.679223    0.000001
C        -0.258812    0.736122    0.000000
H         3.006513   -1.282677   -0.000001
H         3.083787    1.165381   -0.000004
H         0.992791    2.493421   -0.000003
H         0.829556   -2.495582    0.000001
C        -1.619951    1.132088    0.000002
C        -2.372218   -0.089893    0.000000
N        -1.620246   -1.152850    0.000001
H        -2.016839    2.135593    0.000003
H        -3.451021   -0.165931   -0.000001
