21
0 2
C        -0.253901   -3.395159    0.000000
C         1.088572   -3.038876    0.000000
C         1.484775   -1.698046    0.000000
C        -1.246521   -2.426584    0.000000
C        -0.860010   -1.091885    0.000000
C         0.512267   -0.731253    0.000000
H        -0.525664   -4.441960    0.000000
H         1.843137   -3.814098    0.000000
H         2.536399   -1.441969    0.000000
H        -2.296000   -2.686946    0.000000
C         0.512267    0.731253   -0.000000
C        -0.860010    1.091885   -0.000000
N        -1.688277   -0.000000    0.000000
C         1.484776    1.698046   -0.000000
C         1.088572    3.038876   -0.000000
C        -0.253901    3.395159   -0.000000
C        -1.246521    2.426584   -0.000000
H         2.536399    1.441969   -0.000000
H         1.843137    3.814098   -0.000000
H        -0.525664    4.441960   -0.000000
H        -2.296000    2.686946   -0.000000
