27
0 2
N         1.262979    0.749834   -0.455845
C         2.187814   -0.295873   -0.446953
O         2.024127   -1.340380   -1.059061
N         3.328073   -0.018678    0.242062
C        -0.031365    0.505949   -0.310235
C        -0.608457   -0.749460    0.032766
C        -1.963254   -0.884847    0.201098
C        -2.806948    0.216057    0.030669
C        -2.266881    1.465989   -0.311072
C        -0.923599    1.606761   -0.476130
H        -2.367326   -1.851568    0.460656
H        -2.944511    2.298855   -0.438435
H        -0.489027    2.560608   -0.740779
C         4.378850   -1.005348    0.299926
H         4.573446   -1.299659    1.334963
H         5.304298   -0.601428   -0.119351
H         4.076913   -1.875898   -0.272164
C         3.555419    1.204724    0.973212
H         4.525822    1.625062    0.697698
H         3.559323    1.023021    2.052372
H         2.778625    1.923469    0.738455
O        -4.142364    0.175804    0.170454
H         0.038400   -1.606193    0.138148
C        -4.760696   -1.051660    0.504259
H        -5.825564   -0.845817    0.557604
H        -4.412664   -1.418114    1.472120
H        -4.574495   -1.807567   -0.261182
