11
0 1
N        -0.058773    0.417947   -0.387817
N         1.218842   -0.183349   -0.077349
C        -0.168708    1.836657   -0.064676
N        -1.169341   -0.380254    0.051328
H         0.664489    2.343198   -0.539951
H        -0.146196    2.017254    1.009318
H        -1.099179    2.186663   -0.494924
O         1.949688    0.478244    0.612993
O         1.438078   -1.234278   -0.595926
O        -2.235571    0.150733   -0.107631
O        -0.944940   -1.463133    0.504373
