23
0 2
C        -2.546822    0.272116    0.085353
C        -1.951482   -0.977083   -0.048144
C        -0.578278   -1.065800   -0.193165
C        -1.763534    1.426216    0.066271
C        -0.401223    1.332363   -0.079272
C         0.190953    0.080937   -0.204614
H        -2.542246   -1.879564   -0.045905
H        -0.102827   -2.029157   -0.309952
H        -2.253818    2.384613    0.161838
H         0.212338    2.221358   -0.109777
S         1.924923   -0.042873   -0.387032
O         2.241893   -1.315706   -0.966518
O         2.418585    1.167614   -0.976348
N         2.447454   -0.067897    1.187628
C         3.873878   -0.181876    1.305137
H         4.367580    0.656817    0.802390
H         4.227059   -1.098125    0.819948
H         4.144163   -0.192379    2.357545
O        -3.871439    0.466066    0.231113
C        -4.725289   -0.659440    0.253671
H        -4.667992   -1.218545   -0.682895
H        -5.731347   -0.270577    0.379930
H        -4.485383   -1.321597    1.088580
