14
0 1
N         0.004135    0.027808   -0.534748
N         1.363915    0.122081   -0.103553
N        -0.722436   -1.081214    0.010227
C        -0.766310    1.277657   -0.631671
C        -1.285945    1.799316    0.692730
H        -1.574961    1.057072   -1.321920
H        -0.099993    1.987415   -1.111772
H        -1.957232    1.081638    1.164523
H        -1.853420    2.712780    0.517901
H        -0.470377    2.029605    1.374590
O         1.731855    1.225120    0.215099
O         2.016431   -0.874791   -0.184301
O        -1.830177   -1.189364   -0.445460
O        -0.199331   -1.762349    0.840518
