17
0 1
N        -0.416068    0.008184   -0.548186
N        -1.138931   -1.133624   -0.086292
N        -0.824625    1.255632    0.026322
C         1.033191   -0.135070   -0.743630
C         1.858421   -0.051111    0.528301
H         1.306587    0.648263   -1.445614
H         1.165810   -1.091385   -1.241549
O        -0.468958   -2.103352    0.167987
O        -2.329934   -1.043056   -0.081815
O        -0.275176    2.205125   -0.466847
O        -1.625187    1.248457    0.912958
C         3.340273   -0.197050    0.219813
H         1.539399   -0.831868    1.218420
H         1.678212    0.910665    1.013586
H         3.553793   -1.161702   -0.243166
H         3.933727   -0.128236    1.130195
H         3.682578    0.584923   -0.459939
