32
0 1
C         3.257737   -0.331448    1.410745
C         1.892245   -0.523856    1.280596
C         4.072192   -0.352819    0.292033
C         3.523606   -0.563119   -0.963905
C         2.161070   -0.744979   -1.102946
C         1.354268   -0.725015    0.022026
H         1.236863   -0.494797    2.139483
H         3.683795   -0.165515    2.390829
H         5.138584   -0.204338    0.396962
H         4.159697   -0.580067   -1.838418
H         1.715832   -0.897425   -2.075967
N        -0.062921   -0.876440   -0.123664
N        -0.629292   -2.074866   -0.414398
O         0.138031   -2.978739   -0.571087
P        -1.091727    0.438065    0.225809
O        -1.073739    0.816848    1.635537
O        -0.568268    1.514577   -0.781630
C        -0.147254    2.834184   -0.373155
C         1.342767    2.971983   -0.549068
H        -0.445294    2.990734    0.662151
H        -0.692618    3.528518   -1.010181
H         1.878234    2.283792    0.103746
H         1.646848    3.989691   -0.300862
H         1.631227    2.766512   -1.579265
O        -2.464824    0.011142   -0.378435
C        -3.457996   -0.714532    0.380821
C        -4.815543   -0.353510   -0.158052
H        -3.354733   -0.444643    1.431431
H        -3.243332   -1.775230    0.260806
H        -5.011893    0.710774   -0.033343
H        -5.582690   -0.912156    0.379074
H        -4.887279   -0.599658   -1.216794
