26
0 2
C        -2.093764    1.697244   -0.650150
C        -3.251957    1.050189   -0.250134
C        -3.217475   -0.282660    0.164735
C        -2.005400   -0.937804    0.168106
C        -0.805985   -0.289179   -0.187287
C        -0.876576    1.049990   -0.616699
H         0.015282    1.548601   -0.965868
H        -2.145519    2.719611   -1.001341
H        -4.198500    1.575757   -0.278382
H        -1.937578   -1.977207    0.461247
N         0.325078   -1.041873   -0.167658
C         1.565019   -0.497385   -0.023904
C         1.845706    0.688512    0.682625
C         3.145283    1.128260    0.821294
C         4.195509    0.418965    0.255667
C         3.937680   -0.763031   -0.428092
C         2.647694   -1.227939   -0.547286
H         2.427690   -2.155442   -1.057469
H         1.038422    1.227937    1.155907
H         3.345745    2.030843    1.383663
H         5.211269    0.774540    0.363624
H         4.754508   -1.328412   -0.856817
C        -4.478438   -0.978001    0.588669
H        -4.864125   -0.554224    1.517716
H        -4.307530   -2.040656    0.751711
H        -5.258995   -0.871197   -0.165655
