29
0 1
C        -3.503660    0.833455   -0.840173
C        -3.803129   -0.515686   -0.749382
C        -2.849034   -1.394564   -0.281079
C        -2.250272    1.273604   -0.474009
C        -1.295657    0.382758    0.004231
C        -1.581353   -0.976561    0.117269
H        -4.238042    1.538016   -1.205634
H        -4.778555   -0.881348   -1.040448
H        -3.089714   -2.447848   -0.201391
H        -1.988834    2.318942   -0.549949
C         1.563003   -0.888385    0.398649
C         1.199189    0.358102   -0.085680
N        -0.030270    0.923389    0.372852
N        -0.062845    2.006616    1.161870
O         1.008491    2.475730    1.447539
C         2.751006   -1.445623   -0.051084
C         3.556787   -0.764001   -0.945954
C         3.179929    0.485215   -1.411298
C         1.994188    1.049926   -0.980562
H         3.048539   -2.421736    0.310945
H         4.484140   -1.208756   -1.281417
H         3.809758    1.020267   -2.108633
H         1.685195    2.025738   -1.327463
C        -0.644611   -2.045362    0.636036
C         0.635664   -1.597629    1.335764
H        -0.368928   -2.691627   -0.202446
H        -1.216658   -2.672055    1.322775
H         0.391578   -0.949633    2.180267
H         1.133092   -2.477332    1.743667
