27
0 1
C        -3.407931    0.827663   -1.033557
C        -3.800723   -0.470848   -0.749878
C        -2.933337   -1.327368   -0.103616
C        -2.146055    1.255713   -0.669618
C        -1.281230    0.393132   -0.017865
C        -1.652736   -0.920124    0.270493
H        -4.084945    1.507379   -1.532428
H        -4.788001   -0.813214   -1.028839
H        -3.244119   -2.338653    0.125329
H        -1.823202    2.267902   -0.868022
C         1.477576   -1.035433    0.236629
C         1.189171    0.292577   -0.068074
N        -0.018261    0.876502    0.412076
N        -0.042647    1.915724    1.260894
O         1.030127    2.338677    1.603016
C         2.702889   -1.549279   -0.191245
C         3.589169   -0.779280   -0.913508
C         3.271398    0.534396   -1.225424
C         2.072143    1.068431   -0.800771
H         2.947212   -2.576664    0.046213
H         4.531810   -1.200958   -1.235176
H         3.963999    1.145294   -1.787806
H         1.821105    2.097532   -1.012414
C        -0.779252   -1.866737    0.954855
C         0.554868   -1.911382    0.949612
H        -1.297118   -2.667511    1.469785
H         1.022899   -2.744868    1.460248
