22
0 1
C        -2.818330   -0.876979   -0.349803
N        -2.009866    0.205994    0.066503
C        -0.582647    0.115984    0.035906
N        -2.648748    1.322221    0.516863
O        -1.933713    2.206649    0.875015
O        -2.290559   -1.882033   -0.734978
C         0.122424    0.838903   -0.909330
C         1.500354    0.763129   -0.936952
C         2.134832   -0.043056   -0.013539
C         1.444612   -0.771681    0.933680
C         0.066997   -0.684764    0.957117
H        -0.505275   -1.245037    1.682153
H         1.985670   -1.390224    1.632434
H        -0.405946    1.458792   -1.619242
H         2.084120    1.312607   -1.658674
C        -4.301871   -0.678872   -0.276226
H        -4.616511   -0.474373    0.745549
H        -4.768640   -1.589719   -0.638009
H        -4.612590    0.170538   -0.881695
N         3.604544   -0.129890   -0.041097
O         4.187904    0.517046   -0.882895
O         4.138799   -0.842518    0.779918
