22
0 2
C        -0.000000   -0.692437    3.566991
C        -0.000000    0.702954    3.548810
C        -0.000000    1.385412    2.347863
C        -0.000000   -1.399042    2.390269
C         0.000000   -0.737104    1.149647
C         0.000000    0.670809    1.166363
H        -0.000000   -1.217543    4.512292
H        -0.000000    1.256437    4.477685
H        -0.000000    2.465871    2.307089
H        -0.000000   -2.480126    2.374018
C         0.000000    0.670809   -1.166363
C         0.000000   -0.737104   -1.149647
N         0.000000   -1.453451    0.000000
C        -0.000000    1.385412   -2.347863
C        -0.000000    0.702954   -3.548810
C        -0.000000   -0.692437   -3.566991
C        -0.000000   -1.399042   -2.390269
H        -0.000000    2.465871   -2.307089
H        -0.000000    1.256437   -4.477685
H        -0.000000   -1.217543   -4.512292
H        -0.000000   -2.480126   -2.374018
O         0.000000    1.369723   -0.000000
