21
0 1
C         3.420086    0.649320   -0.425978
C         2.871792   -0.392110   -1.156206
C         1.608537   -0.863966   -0.847581
C         2.713828    1.222638    0.620143
C         1.451705    0.759830    0.940584
C         0.912898   -0.278646    0.197307
H         4.408661    1.014440   -0.670177
H         3.430531   -0.842990   -1.964687
H         1.168942   -1.686595   -1.392963
H         3.149258    2.030847    1.191279
H         0.886002    1.187792    1.755532
S        -0.701298   -0.856083    0.585171
O        -0.898287   -2.130347   -0.022552
O        -0.959646   -0.619037    1.960395
N        -1.716306    0.185664   -0.290498
N        -1.811548    1.428853    0.212753
O        -2.439063    2.186892   -0.473869
C        -2.246071   -0.129564   -1.606833
H        -2.073821   -1.182339   -1.795569
H        -1.761639    0.486985   -2.363915
H        -3.312859    0.082492   -1.618432
