21
0 2
C         2.286806    1.418517    0.248149
C         1.231823    2.312411    0.239881
C        -0.061081    1.860343    0.041912
C         2.024511    0.076589    0.051804
C         0.749593   -0.406280   -0.150227
C        -0.287287    0.506972   -0.145968
H         1.419025    3.366892    0.384248
H        -0.894785    2.547460    0.019503
H         0.577574   -1.458564   -0.316251
S        -1.934025   -0.067486   -0.405187
O        -2.725017    1.030335   -0.873659
O        -1.875362   -1.296218   -1.136126
N        -2.407049   -0.408669    1.141141
C        -3.739827   -0.935865    1.228696
H        -4.461259   -0.229291    0.804053
H        -3.977305   -1.126457    2.271304
H        -3.822285   -1.863142    0.651416
N         3.148025   -0.875833    0.054131
O         4.259806   -0.425990    0.225016
O         2.888582   -2.046125   -0.112961
H         3.305302    1.742269    0.398159
