25
0 1
N         0.472074   -0.177630    0.524402
N         0.823022    0.378223    1.708798
O        -0.089951    0.766990    2.376222
C         1.506375   -0.835580   -0.218727
O         1.275549   -1.909667   -0.724451
N         2.684944   -0.189194   -0.282973
C        -0.896900   -0.389922    0.186929
C        -1.636536    0.630586   -0.391358
C        -2.968931    0.438635   -0.705651
C        -3.560960   -0.782707   -0.442470
C        -2.828153   -1.807472    0.131741
C        -1.498359   -1.608180    0.448027
H        -3.530363    1.245345   -1.153883
H        -4.603008   -0.931947   -0.690620
H        -3.291418   -2.763175    0.332786
H        -0.903620   -2.396513    0.884422
C         3.819556   -0.910552   -0.823927
H         4.699784   -0.705416   -0.213588
H         4.025538   -0.601149   -1.851503
H         3.608429   -1.974289   -0.816863
C         2.901365    1.220921   -0.018443
H         3.523381    1.626416   -0.817785
H         3.405871    1.375596    0.935757
H         1.963669    1.764226   -0.011724
Cl        -0.898120    2.158127   -0.732911
