26
0 1
N         0.523308   -1.250386   -0.857251
N        -0.577650   -1.473306   -0.056721
C         1.605626   -0.540048   -0.326666
H         0.296297   -1.005676   -1.812744
C         1.772722   -0.369481    1.041392
C         2.881902    0.305745    1.519914
C         3.832466    0.819910    0.655042
C         3.659968    0.650626   -0.709605
C         2.557818   -0.021819   -1.200188
C        -1.631025   -0.557924   -0.044260
H        -0.850126   -2.442139   -0.032590
C        -2.879216   -0.969461    0.419607
C        -3.930482   -0.077676    0.475391
C        -1.458633    0.760954   -0.449398
C        -2.523259    1.645232   -0.388934
C        -3.762310    1.238272    0.070438
H        -3.018167   -1.995992    0.737392
H        -4.893478   -0.414802    0.836059
H        -0.492080    1.102429   -0.789946
H        -2.373325    2.669702   -0.703741
H        -4.587788    1.934896    0.114360
H         2.431943   -0.154044   -2.268365
H         1.028455   -0.762923    1.717519
H         2.999228    0.433594    2.588225
H         4.695194    1.347439    1.037416
H         4.390788    1.047384   -1.402177
