20
0 2
C        -3.233914   -0.154384   -0.148588
N        -2.231225    0.811402   -0.119388
C        -0.943928    0.495350   -0.088419
O        -3.305580   -0.975397   -1.030275
C        -0.443923   -0.833162    0.043825
C         0.904301   -1.062727    0.096565
C         1.778304    0.016107    0.017291
C         1.338313    1.327745   -0.116316
C        -0.008433    1.564487   -0.168779
H        -0.401063    2.565789   -0.271586
H         2.061205    2.126360   -0.176002
H        -1.138877   -1.658155    0.082741
H         1.304953   -2.059647    0.195987
C        -4.253000   -0.002457    0.941540
H        -3.766238    0.001446    1.917869
H        -4.972193   -0.814387    0.882075
H        -4.761205    0.955476    0.830725
N         3.221413   -0.240635    0.077269
O         3.581291   -1.391934    0.199769
O         3.963761    0.715081    0.001794
