23
0 1
C        -2.464449    1.494393    0.290852
C        -1.391070    2.345951    0.096656
C        -0.167168    1.843319   -0.305822
C        -2.290403    0.141934    0.074532
C        -1.085440   -0.393823   -0.327836
C        -0.029658    0.478626   -0.510457
H        -1.511025    3.407764    0.257295
H         0.679608    2.494703   -0.467332
H        -0.985636   -1.453337   -0.506559
S         1.534206   -0.163622   -1.011207
O         1.340395   -1.459556   -1.567662
O         2.242650    0.864779   -1.684088
N         2.328343   -0.443657    0.455585
N         2.691217    0.676647    1.111680
O         3.168728    0.475824    2.191700
C         2.429203   -1.750449    1.086901
H         2.090089   -2.495311    0.377078
H         1.826117   -1.774537    1.994107
H         3.467345   -1.934156    1.354508
N        -3.432095   -0.766503    0.277970
O        -4.487502   -0.270435    0.603277
O        -3.239433   -1.949701    0.109571
H        -3.430845    1.860430    0.602221
