27
0 2
C        -3.597355    1.186262   -0.238277
C        -3.930888   -0.139301    0.005870
C        -2.926595   -1.062538    0.251788
C        -2.277023    1.561690   -0.228103
C        -1.231782    0.636043   -0.000958
C        -1.587220   -0.715159    0.253965
H        -4.369622    1.919879   -0.426576
H        -4.965866   -0.453776    0.008564
H        -3.192267   -2.094462    0.446112
H        -1.982748    2.587824   -0.397487
C         1.587219   -0.715161   -0.253960
C         1.231782    0.636043    0.000960
N         0.000000    1.201234    0.000003
C         2.926594   -1.062539   -0.251788
C         3.930889   -0.139301   -0.005878
C         3.597356    1.186262    0.238267
C         2.277024    1.561690    0.228099
H         3.192265   -2.094464   -0.446111
H         4.965867   -0.453776   -0.008577
H         4.369624    1.919880    0.426560
H         1.982750    2.587825    0.397481
C        -0.557652   -1.767066    0.520336
C         0.557651   -1.767070   -0.520323
H        -1.050820   -2.739069    0.535223
H        -0.118606   -1.624269    1.512374
H         0.118605   -1.624280   -1.512362
H         1.050819   -2.739073   -0.535202
