11
0 2
N        -0.170785    0.000008   -0.616739
N         1.125653    0.000000   -0.091584
C        -1.136922   -0.000004    0.456907
C        -2.543229    0.000002   -0.097190
H        -0.948952    0.880597    1.084404
H        -0.948952   -0.880620    1.084382
H        -2.716556    0.883221   -0.710096
H        -3.264967   -0.000008    0.718786
H        -2.716556   -0.883201   -0.710117
O         1.624547   -1.081991    0.083284
O         1.624555    1.081987    0.083291
