23
0 1
C         3.480698    0.058546    0.000000
C         3.217269   -1.308835    0.000001
C         1.917332   -1.780955    0.000001
C         2.455785    0.989221   -0.000000
C         1.166007    0.499170   -0.000000
C         0.877305   -0.864961    0.000000
H         4.505966    0.402660    0.000000
H         4.041587   -2.008755    0.000001
H         1.717940   -2.844199    0.000001
H         2.650832    2.051010   -0.000001
C        -0.571454   -0.999394    0.000000
C        -1.124011    0.290052   -0.000000
N        -0.050704    1.208140   -0.000000
N        -0.052962    2.542283   -0.000001
O        -1.141210    3.056116   -0.000001
C        -1.405019   -2.103107    0.000001
C        -2.774759   -1.904031    0.000000
C        -3.305298   -0.619957   -0.000000
C        -2.491178    0.502387   -0.000000
H        -0.993725   -3.103680    0.000001
H        -3.440500   -2.756339    0.000001
H        -4.378623   -0.487305   -0.000000
H        -2.904197    1.495897   -0.000001
