15
0 2
S        -2.508175   -0.000002   -0.619790
C        -0.096712    0.000002    0.474853
C         0.573162   -1.197708    0.257161
C         1.894763   -1.198245   -0.150957
C         2.558790   -0.000002   -0.355557
C         1.894766    1.198243   -0.150960
C         0.573164    1.197709    0.257158
H         0.052299    2.134225    0.411485
H         3.592572   -0.000003   -0.674192
H         2.408217    2.137128   -0.309855
H         0.052294   -2.134223    0.411490
H         2.408213   -2.137131   -0.309850
C        -1.539842    0.000004    0.903150
H        -1.765673    0.888425    1.489236
H        -1.765673   -0.888414    1.489242
