12
0 2
S         0.000000    0.000000   -3.152235
C         0.000000    0.000000   -1.445430
C         0.000000    1.207204   -0.721509
C         0.000000    1.210150    0.653706
C        -0.000000   -0.000000    1.335151
C        -0.000000   -1.210150    0.653706
C        -0.000000   -1.207204   -0.721509
H         0.000000    2.138939   -1.269301
H         0.000000    2.137839    1.207520
Cl        -0.000000   -0.000000    3.060861
H        -0.000000   -2.138939   -1.269301
H        -0.000000   -2.137839    1.207520
