17
0 1
N         2.889625    0.000029    0.785284
O         2.153924    0.000059    1.698472
S         2.156467   -0.000029   -0.866087
C         0.435229   -0.000020   -0.527737
C        -0.249430    1.199340   -0.377146
C        -1.599688    1.193575   -0.086062
C        -2.295266   -0.000002    0.066717
C        -1.599690   -1.193586   -0.085989
C        -0.249428   -1.199368   -0.377073
H         0.280099    2.135125   -0.493626
H        -2.124473    2.134261    0.024274
C        -3.753841    0.000018    0.415229
H         0.280099   -2.135161   -0.493497
H        -4.255673   -0.883357    0.022518
H        -4.255773    0.883103    0.021990
H        -3.889360    0.000338    1.498936
H        -2.124474   -2.134265    0.024404
