20
0 2
S        -2.962475   -0.820714   -0.163949
C        -2.254455    0.758418    0.301881
C        -0.863162    1.041758   -0.239716
H        -2.277183    0.826219    1.392944
H        -2.974464    1.503598   -0.051900
C         0.203100    0.124697    0.336287
H        -0.609282    2.082395   -0.013608
H        -0.878869    0.950522   -1.328423
C         1.590792    0.391437   -0.223388
H        -0.075458   -0.914269    0.136200
H         0.222842    0.233843    1.426052
C         2.660313   -0.522927    0.354395
H         1.866707    1.434192   -0.033723
H         1.568466    0.277473   -1.312053
C         4.044234   -0.252157   -0.214043
H         2.382566   -1.563660    0.164664
H         2.681629   -0.408417    1.442112
H         4.057632   -0.391441   -1.296721
H         4.791565   -0.919778    0.215697
H         4.358520    0.773389   -0.010548
