12
0 2
S         1.537403    1.603145    0.000006
C         0.033141    0.718454   -0.000001
C        -1.190149    1.384051   -0.000004
C        -2.372817    0.670635    0.000001
C        -2.357960   -0.714965    0.000001
C        -1.150430   -1.387573   -0.000001
C         0.030258   -0.670474    0.000000
H        -3.283706   -1.272997    0.000002
H        -1.112449   -2.467709   -0.000003
H        -1.208252    2.465590   -0.000008
H        -3.313692    1.203863    0.000002
Cl         1.551023   -1.504696   -0.000003
