14
0 1
N        -3.224156    0.000198    0.847943
O        -2.456417    0.000418    1.731452
S        -2.546487   -0.000203   -0.836305
C        -0.816223   -0.000132   -0.546801
C        -0.130173    1.200941   -0.412228
C         1.226929    1.205284   -0.154945
C         1.894894   -0.000006   -0.028671
C         1.226944   -1.205357   -0.154439
C        -0.130158   -1.201138   -0.411721
H        -0.663425    2.136202   -0.511909
H         1.767054    2.135025   -0.050780
Cl         3.595509    0.000072    0.292356
H        -0.663399   -2.136448   -0.511005
H         1.767080   -2.135047   -0.049882
