8
0 2
C         1.132236    0.166620    0.011665
O        -0.090894   -0.538100   -0.034129
H         1.251032    0.669637    0.974277
H         1.180755    0.907647   -0.791351
H         1.928017   -0.561823   -0.119756
C        -1.196506    0.223382    0.060107
H        -1.125853    1.273869   -0.195329
H        -2.121178   -0.324543   -0.025441
