18
0 1
C        -2.261297   -0.661439    0.007024
C        -1.837503    0.659670   -0.001548
C        -0.489462    0.977146   -0.010788
C        -1.336784   -1.684114    0.004676
C         0.021893   -1.385852   -0.001067
C         0.442999   -0.071632   -0.007822
H        -3.320075   -0.882229    0.013140
H        -1.657071   -2.716638    0.009432
H         0.743288   -2.189202    0.001901
O         1.747655    0.329174   -0.002869
C         2.746997   -0.661983    0.006253
H         3.698863   -0.137561    0.008462
H         2.686271   -1.295038   -0.882661
H         2.677784   -1.289430    0.898821
H        -2.563672    1.463515   -0.007886
N        -0.033576    2.284466   -0.071323
H        -0.658429    2.981756    0.295192
H         0.925772    2.409387    0.205440
