14
0 1
O        -0.648213   -0.277335    0.907082
O         0.648217    0.277242    0.907107
C         1.432414   -0.289369   -0.069340
O         1.060816   -1.148361   -0.799093
C         2.769167    0.379974   -0.045763
H         3.042990    0.692259    0.958972
H         2.714897    1.265692   -0.679311
H         3.509200   -0.302345   -0.453519
C        -1.432420    0.289388   -0.069292
O        -1.060823    1.148449   -0.798964
C        -2.769162   -0.379981   -0.045800
H        -3.042977   -0.692404    0.958893
H        -2.714880   -1.265612   -0.679468
H        -3.509206    0.302382   -0.453463
