15
0 2
O        -1.953290    0.000004   -0.192743
O        -0.828998    0.000041   -0.842886
C         0.357690   -0.000002    0.043883
C         0.315617    1.259182    0.884746
H         0.307271    2.145570    0.250772
H         1.195513    1.301780    1.526405
H        -0.573434    1.268007    1.511881
C         0.315636   -1.259276    0.884615
H         0.307306   -2.145598    0.250547
H         1.195532   -1.301927    1.526270
H        -0.573416   -1.268181    1.511746
C         1.509790    0.000058   -0.938157
H         1.475887    0.884800   -1.573030
H         1.475900   -0.884618   -1.573123
H         2.455345    0.000036   -0.396957
