13
0 1
C        -1.349218   -0.553467    0.000001
O        -0.012783   -0.711618    0.000001
C         0.783436    0.461354   -0.000001
C         2.231104    0.043735   -0.000000
C        -2.038710    0.579108   -0.000001
H        -1.839518   -1.518880    0.000002
H        -1.581598    1.556411   -0.000002
H        -3.116599    0.530085   -0.000000
H         0.543559    1.059920    0.884547
H         0.543559    1.059918   -0.884549
H         2.459229   -0.551276    0.883722
H         2.874737    0.923660   -0.000001
H         2.459229   -0.551278   -0.883721
