7
0 2
O         0.808763   -1.028123    0.001493
C         0.099996    0.000011   -0.007644
O         0.808825    1.028090    0.001493
C        -1.383195    0.000036   -0.003099
H        -1.757126   -0.894776   -0.496784
H        -1.757123    0.896101   -0.494500
H        -1.727265   -0.001343    1.031842
