20
0 1
O        -0.936186   -1.119514   -0.250528
C         0.260159   -0.478808   -0.157905
C         0.465642    0.853349   -0.485489
C         1.319795   -1.249522    0.306663
C         2.574980   -0.691823    0.435165
C         2.793099    0.637342    0.101298
C         1.734701    1.398593   -0.355825
H        -0.351804    1.476613   -0.813859
H         1.887011    2.439133   -0.611093
H         1.133667   -2.285042    0.556421
H         3.392891   -1.301560    0.795996
H         3.777653    1.072730    0.201415
C        -2.023870   -0.478215   -0.877856
C        -2.802575    0.434983    0.014987
H        -2.674383   -1.284744   -1.222849
H        -1.686078    0.058051   -1.770961
C        -2.561463    0.639147    1.295538
H        -3.633867    0.936813   -0.471471
H        -1.740454    0.147368    1.799691
H        -3.177958    1.306473    1.881477
