10
0 2
C         1.207605   -0.284393    0.000005
C        -0.068092    0.570392   -0.000007
H         1.246468   -0.925871   -0.880913
H         1.246468   -0.925844    0.880942
H         2.097073    0.347563   -0.000005
C        -1.309727   -0.240877    0.000001
H        -0.049710    1.222465    0.876953
H        -0.049707    1.222440   -0.876987
H        -1.734676   -0.605705    0.924971
H        -1.734635   -0.605782   -0.924957
