8
0 1
O        -0.704154   -0.583098    0.000000
N         0.000000    0.613374    0.000000
O         1.197670    0.547537    0.000000
O        -0.705715    1.572065    0.000000
C         0.129373   -1.744573    0.000000
H        -0.581861   -2.565419    0.000000
H         0.751611   -1.776394    0.891406
H         0.751611   -1.776394   -0.891406
