16
0 1
C        -1.309515    0.013158   -0.338159
O         1.005435    0.577104   -0.432391
N         2.331682    0.370870   -0.172238
O         2.572656   -0.622541    0.407831
C        -1.685362    1.312826    0.360174
C         0.091477   -0.431430    0.027947
C        -2.291947   -1.102575   -0.004306
H        -3.306089   -0.816283   -0.282414
H        -2.291254   -1.315726    1.067072
H        -2.048155   -2.026195   -0.531056
H        -0.986582    2.111576    0.117068
H        -1.685318    1.180329    1.444910
H        -2.684661    1.633626    0.064857
H         0.350270   -1.381912   -0.441542
H         0.204174   -0.549269    1.108351
H        -1.326810    0.179385   -1.419046
