12
0 2
C        -1.102227    1.108381    0.000001
C        -1.149468   -0.289124   -0.000000
C        -0.034713   -1.060962    0.000000
C         0.138292    1.750836    0.000001
C         1.295766    1.023558    0.000000
C         1.262021   -0.423133    0.000003
H        -2.029012    1.664471    0.000000
F        -2.360516   -0.864404   -0.000003
H        -0.086456   -2.139929   -0.000002
H         0.171144    2.831722    0.000000
H         2.270596    1.490355   -0.000001
O         2.307544   -1.090540    0.000000
