24
0 1
C        -1.113114   -0.000000    0.005135
O         0.174825   -0.000000    0.624070
C        -1.313716    1.256757   -0.836334
C        -2.080411    0.000000    1.176812
H        -3.113084    0.000000    0.827227
H        -1.919203    0.882845    1.794556
H        -1.919204   -0.882844    1.794557
C        -1.313717   -1.256758   -0.836333
H        -2.326615   -1.285229   -1.239038
H        -1.161401   -2.145877   -0.224776
H        -0.623857   -1.295589   -1.679472
C         1.338300   -0.000000   -0.192463
H        -1.161401    2.145876   -0.224777
H        -2.326615    1.285228   -1.239039
H        -0.623857    1.295589   -1.679473
C         2.134525    1.258600    0.097243
H         1.550913    2.147687   -0.138686
H         3.055087    1.282506   -0.487957
H         2.395861    1.294844    1.155567
C         2.134526   -1.258599    0.097246
H         1.054543   -0.000002   -1.248019
H         2.395862   -1.294841    1.155569
H         3.055088   -1.282505   -0.487954
H         1.550915   -2.147688   -0.138682
