12
0 2
C         1.695199   -1.341308    0.000001
C         0.307447   -1.444283    0.000000
C        -0.464224   -0.310796    0.000001
C         2.328940   -0.088231    0.000001
C         1.587589    1.052530    0.000002
C         0.141231    1.016675    0.000001
H         2.290733   -2.244004    0.000000
H        -0.168890   -2.414480   -0.000001
Cl        -2.168822   -0.413965   -0.000001
H         3.409425   -0.038015    0.000002
H         2.038549    2.035311    0.000002
O        -0.534618    2.048882   -0.000002
