12
0 1
C        -1.063915   -1.178712   -0.000010
C        -1.811731   -0.018312   -0.000004
C        -1.129561    1.188854   -0.000001
C         0.247431    1.184762    0.000004
C         0.898306   -0.049209    0.000018
N         0.264650   -1.200334    0.000004
H        -1.551220   -2.147244   -0.000008
H        -2.891136   -0.058177   -0.000006
H        -1.668068    2.127421   -0.000005
H         0.810448    2.109391   -0.000002
O         2.246088   -0.141462   -0.000004
H         2.635541    0.738350   -0.000015
