10
0 1
C        -1.733692    0.106215    0.000007
O        -0.483225   -0.532978   -0.000008
H        -1.860223    0.721385    0.893879
H        -2.464175   -0.701408    0.000004
H        -1.860235    0.721401   -0.893853
O         0.483225    0.532978   -0.000010
C         1.733692   -0.106215    0.000006
H         2.464176    0.701407    0.000001
H         1.860235   -0.721403   -0.893851
H         1.860223   -0.721382    0.893881
