16
0 1
C         2.264352    0.333470   -0.000000
C         1.840217   -0.989161   -0.000000
C         0.496210   -1.294472   -0.000000
C         1.321651    1.341805   -0.000000
C        -0.036173    1.050829   -0.000000
C        -0.449625   -0.273680   -0.000000
H         3.319334    0.569913   -0.000000
H         2.567099   -1.790816   -0.000000
H         0.149352   -2.318681   -0.000000
H         1.636490    2.377191   -0.000000
H        -0.752923    1.857710   -0.000000
O        -1.747179   -0.668235   -0.000000
C        -2.748392    0.322799    0.000000
H        -3.698024   -0.205231    0.000001
H        -2.686668    0.953123   -0.891001
H        -2.686667    0.953123    0.891002
