12
0 2
C         0.000001    0.894624    0.000000
C         0.000001    0.211160   -1.223487
C         0.000001   -1.150877   -1.232010
C         0.000001    0.211160    1.223487
C         0.000001   -1.150877    1.232010
C         0.000000   -1.907983    0.000000
Cl         0.000000    2.612208   -0.000000
H         0.000000    0.778249   -2.143668
H         0.000000   -1.712774   -2.155777
H         0.000000    0.778249    2.143668
H         0.000000   -1.712774    2.155777
O        -0.000003   -3.147717   -0.000000
