19
0 1
C        -2.267579   -0.680594   -0.000000
C        -1.835016    0.638915   -0.000000
C        -0.491926    0.964197   -0.000000
C        -1.335399   -1.696281   -0.000000
C         0.021664   -1.402610   -0.000000
C         0.438434   -0.081335   -0.000000
H        -1.653354   -2.730450   -0.000000
H         0.739713   -2.208408   -0.000001
O         1.742540    0.300594   -0.000000
C         2.735661   -0.697674    0.000001
H         3.689614   -0.177232    0.000002
H         2.668734   -1.327731   -0.890749
H         2.668732   -1.327730    0.890752
H        -3.325206   -0.905701   -0.000000
C        -0.016966    2.384347   -0.000000
H        -0.861089    3.071808   -0.000001
H         0.600961    2.592798   -0.874483
H         0.600961    2.592798    0.874483
H        -2.562621    1.441310   -0.000000
