16
0 2
C         0.854276    0.278327   -0.000001
C        -0.026647    1.380134    0.000000
C        -1.368759    1.187042   -0.000000
C         0.352297   -1.031262    0.000000
C        -0.998353   -1.238778   -0.000000
C        -1.936388   -0.143456   -0.000010
H         1.025240   -1.875649    0.000003
H        -1.412478   -2.237771    0.000003
O        -3.163414   -0.333880    0.000005
H         0.407081    2.371136    0.000002
H        -2.061394    2.017498    0.000003
O         2.158603    0.585215    0.000000
C         3.115892   -0.457958    0.000001
H         4.086776    0.027930    0.000003
H         3.019682   -1.079058   -0.892353
H         3.019679   -1.079058    0.892355
