16
0 1
C        -1.675349    0.156687    0.068014
C        -1.126371   -1.109495    0.005133
C         0.240413   -1.262463   -0.132195
C        -0.854311    1.265552   -0.012240
C         0.508619    1.100836   -0.160052
C         1.082277   -0.162488   -0.221600
F        -2.986168    0.308306    0.205525
F        -1.912954   -2.175913    0.085754
F         0.749987   -2.487714   -0.180949
F        -1.378769    2.484072    0.043425
F         1.284068    2.179295   -0.252752
O         2.405957   -0.339087   -0.422366
C         3.246430   -0.022910    0.686899
H         4.262071   -0.231718    0.364175
H         2.997496   -0.651582    1.543833
H         3.157060    1.029271    0.958142
