12
0 2
C         1.593946    0.465939   -0.000001
O         2.126777   -0.580516    0.000018
C         0.117767    0.767403   -0.000009
C        -0.776253   -0.466384    0.000001
H        -0.068570    1.403513   -0.869436
H        -0.068575    1.403530    0.869404
C        -2.251360   -0.099445   -0.000007
H        -0.539038   -1.077515    0.872368
H        -0.539033   -1.077533   -0.872352
H        -2.513022    0.489335    0.881134
H        -2.877563   -0.991600   -0.000001
H        -2.513016    0.489318   -0.881162
