17
0 1
C        -0.861040   -0.451877    0.093913
O        -1.858023   -0.609119   -0.798067
O        -0.813043   -1.086978    1.110550
H        -2.460901   -1.275249   -0.435752
C         0.111503    0.623016   -0.323478
C         1.507857    0.345900    0.218005
C         2.148938   -0.905206   -0.361400
H         1.449924    0.264136    1.304765
H         2.130821    1.215813   -0.002454
H         1.572617   -1.795673   -0.109452
H         3.156554   -1.044714    0.030000
H         2.221226   -0.843858   -1.449180
C        -0.432366    1.969549    0.160852
H         0.134375    0.631154   -1.415453
H        -0.483328    1.991174    1.250069
H        -1.428502    2.163450   -0.235333
H         0.226390    2.774260   -0.164428
