7
0 1
S        -1.053433   -0.084966   -0.095227
O         0.422991    0.616831    0.097937
H        -1.202242   -0.596509    1.144012
C         1.532679   -0.260716   -0.034932
H         1.553776   -0.986577    0.781970
H         2.422579    0.364534    0.011205
H         1.500816   -0.792353   -0.987461
