13
0 2
C         0.000012    0.000019   -0.157564
C        -1.061090    1.026583    0.015527
H        -0.775777    1.981902   -0.428898
H        -1.264757    1.223556    1.079892
H        -2.006422    0.709802   -0.428945
C         1.419609    0.405619    0.015532
H         1.692058    0.483411    1.079896
H         1.617992    1.382702   -0.428886
H         2.104234   -0.319142   -0.428950
C        -0.358522   -1.432203    0.015496
H        -1.328544   -1.662707   -0.428892
H        -0.427255   -1.707093    1.079858
H         0.388416   -2.092538   -0.429025
