17
0 2
C         1.955217   -1.358082    0.000000
C         0.561680   -1.406459    0.000003
C        -0.202813   -0.265877    0.000006
C         2.629378   -0.129177   -0.000007
C         1.916366    1.030459   -0.000005
C         0.466915    1.029933    0.000020
H         3.711076   -0.108819   -0.000016
H         2.390612    2.002292   -0.000014
O        -0.143341    2.108414   -0.000009
H         2.519520   -2.280848   -0.000004
H         0.046948   -2.357443    0.000001
C        -1.697732   -0.440332    0.000002
O        -2.145295   -1.564566   -0.000018
C        -2.609488    0.747799    0.000014
H        -2.420407    1.377479    0.868222
H        -3.635396    0.389460    0.000007
H        -2.420403    1.377499   -0.868180
