10
0 2
C        -1.309727   -0.240877    0.000002
C        -0.068092    0.570392   -0.000011
H        -1.734625   -0.605801   -0.924954
H        -1.734686   -0.605687    0.924973
C         1.207605   -0.284393    0.000008
H        -0.049711    1.222471    0.876945
H        -0.049706    1.222434   -0.876995
H         1.246468   -0.925838    0.880949
H         2.097073    0.347563   -0.000006
H         1.246468   -0.925877   -0.880905
