16
0 1
C        -0.480317    0.745870    0.052427
O        -1.042761   -0.486961   -0.432463
N        -2.370105   -0.696814   -0.185082
O        -2.905526    0.167595    0.404906
C         0.984329    0.742823   -0.312509
H        -0.631463    0.801755    1.132149
H        -1.015617    1.578955   -0.404717
C         1.792052   -0.337762    0.391889
H         1.387027    1.727800   -0.059713
H         1.081244    0.635958   -1.395850
C         3.264060   -0.302000    0.014345
H         1.371496   -1.315350    0.150221
H         1.685893   -0.214958    1.473798
H         3.397469   -0.453951   -1.058279
H         3.825545   -1.080150    0.531294
H         3.714701    0.658982    0.270216
