11
0 1
C         0.558857    0.102797   -0.000001
O         1.670196   -0.659142    0.000001
O         0.606116    1.300534   -0.000002
H         2.428082   -0.056362    0.000001
C        -0.688132   -0.733109    0.000003
C        -1.957777    0.094910   -0.000002
H        -0.636324   -1.392218    0.869463
H        -0.636324   -1.392229   -0.869448
H        -2.005140    0.737691    0.877548
H        -2.833340   -0.553292    0.000003
H        -2.005140    0.737679   -0.877561
