23
0 1
C         3.489006    0.442278   -0.607478
C         2.248191    1.051662   -0.667985
C         3.672283   -0.701305    0.151931
C         2.604564   -1.228201    0.859911
C         1.360543   -0.623944    0.813770
C         1.189059    0.514271    0.042028
O        -0.000002    1.197027    0.000010
C        -1.189060    0.514268   -0.042020
C        -2.248203    1.051667    0.667972
C        -1.360532   -0.623957   -0.813750
C        -2.604552   -1.228215   -0.859901
C        -3.672282   -0.701312   -0.151942
C        -3.489016    0.442281    0.607455
H        -2.083836    1.943775    1.256198
H        -4.316680    0.863460    1.162529
H        -0.527761   -1.029457   -1.370745
H        -2.740014   -2.116480   -1.462663
H        -4.641948   -1.177891   -0.194668
H         0.527780   -1.029438    1.370782
H         4.641951   -1.177883    0.194649
H         2.740036   -2.116459    1.462682
H         4.316661    0.863451   -1.162569
H         2.083815    1.943763   -1.256220
