18
0 1
C         2.913287   -0.364465   -0.115760
C         1.459165   -0.393431    0.326856
H         3.466454   -1.219596    0.273746
H         3.414711    0.541572    0.231065
H         2.991543   -0.387257   -1.204437
C         0.662549    0.791189   -0.199275
H         1.407108   -0.401606    1.419960
H         0.984857   -1.316094   -0.010425
C        -0.788512    0.776364    0.220940
H         0.708246    0.811986   -1.291579
H         1.110915    1.725173    0.152479
O        -1.421090   -0.352323   -0.335162
H        -1.296035    1.690050   -0.117366
H        -0.868698    0.743782    1.317560
C        -2.770704   -0.457223    0.026609
H        -2.888326   -0.547345    1.113512
H        -3.171478   -1.350725   -0.447865
H        -3.345279    0.414039   -0.311574
