20
0 1
C         0.687094    2.276542   -0.000001
C         1.383551    1.070567   -0.000001
C         0.703870   -0.131000   -0.000001
C        -0.687094    2.276542   -0.000002
C        -1.383551    1.070567   -0.000001
C        -0.703869   -0.131000   -0.000001
H        -1.236726    3.207735   -0.000002
H        -2.462849    1.081557   -0.000002
O        -1.290005   -1.350183   -0.000001
C        -2.696150   -1.408705    0.000004
H        -2.954695   -2.464072    0.000007
H        -3.116506   -0.934088   -0.890880
H        -3.116499   -0.934084    0.890889
H         1.236726    3.207735   -0.000002
O         1.290005   -1.350183   -0.000000
C         2.696150   -1.408705    0.000002
H         2.954695   -2.464072    0.000003
H         3.116501   -0.934085    0.890886
H         3.116504   -0.934087   -0.890883
H         2.462849    1.081557   -0.000001
