8
0 2
O        -1.247591   -0.363310    0.000001
C        -0.177826    0.477334   -0.000000
C         1.180511   -0.194528   -0.000000
H        -0.301151    1.153925    0.864697
H        -0.301152    1.153924   -0.864698
H         1.293301   -0.823006    0.883092
H         1.980319    0.547816   -0.000001
H         1.293301   -0.823007   -0.883093
