10
0 1
C         0.709315    0.630615    0.000000
O         1.249392   -0.673314   -0.000000
H         2.207494   -0.615591    0.000008
C        -0.780426    0.576862   -0.000001
H         1.043194    1.192985   -0.882221
H         1.043193    1.192984    0.882223
C        -1.498533   -0.530056   -0.000000
H        -1.267442    1.546946   -0.000002
H        -1.024414   -1.501494    0.000001
H        -2.579301   -0.493850   -0.000001
