16
0 1
C         1.986006    0.569662    0.000000
C         1.342135   -0.643014    0.000000
C        -0.033347   -0.772936    0.000000
C         1.197265    1.713332   -0.000000
C        -0.178076    1.631936   -0.000000
C        -0.798597    0.384862   -0.000000
H         3.065010    0.611889    0.000000
F         2.074539   -1.770938    0.000000
H        -0.464154   -1.761444   -0.000000
H         1.671807    2.685333   -0.000000
H        -0.797229    2.517492   -0.000000
O        -2.150386    0.391064   -0.000000
C        -2.828331   -0.845886    0.000000
H        -3.888603   -0.609779    0.000000
H        -2.588466   -1.430650    0.891504
H        -2.588466   -1.430651   -0.891504
