24
0 1
C         1.113114   -0.000000    0.005135
O        -0.174825   -0.000004    0.624070
C         1.313718   -1.256755   -0.836338
C         2.080411   -0.000003    1.176812
H         3.113084   -0.000001    0.827227
H         1.919204   -0.882850    1.794553
H         1.919203    0.882839    1.794559
C         1.313715    1.256760   -0.836329
H         2.326613    1.285234   -1.239034
H         1.161399    2.145877   -0.224769
H         0.623856    1.295594   -1.679468
C        -1.338300   -0.000000   -0.192463
H         1.161403   -2.145876   -0.224784
H         2.326616   -1.285224   -1.239043
H         0.623859   -1.295584   -1.679477
C        -2.134528   -1.258599    0.097243
H        -1.550918   -2.147687   -0.138687
H        -3.055090   -1.282502   -0.487957
H        -2.395864   -1.294843    1.155566
C        -2.134523    1.258601    0.097246
H        -1.054543    0.000000   -1.248019
H        -2.395860    1.294842    1.155570
H        -3.055085    1.282509   -0.487954
H        -1.550910    2.147688   -0.138681
