12
0 1
C        -1.794694   -0.072076   -0.000001
C        -1.159853    1.155740   -0.000000
C         0.223041    1.195748    0.000000
C         0.914282   -0.001219    0.000000
C         0.190344   -1.188522    0.000000
N        -1.130154   -1.222619   -0.000000
H        -2.876014   -0.136737   -0.000001
H        -1.737359    2.069887   -0.000001
H         0.753965    2.140841    0.000000
O         2.268624   -0.088851    0.000001
H         2.659984    0.789986    0.000004
H         0.722793   -2.132864    0.000000
