25
0 1
O         0.422371    0.467447    0.153918
C        -0.406341   -0.546058   -0.195948
C         1.795743    0.267157    0.095448
O        -0.019833   -1.615282   -0.569541
C        -1.833005   -0.161031   -0.061991
C         2.413656   -0.650467    0.921678
C         2.520442    1.067889   -0.762294
C         3.899626    0.946866   -0.794154
C         4.536733    0.030320    0.024228
C         3.791388   -0.765804    0.879273
H         4.285395   -1.484086    1.519581
H         1.820828   -1.269473    1.579186
H         4.475855    1.571739   -1.463074
H         5.613694   -0.064519   -0.002997
H         2.000706    1.776502   -1.392077
C        -2.224132    1.090830    0.396001
C        -2.792000   -1.103356   -0.411157
C        -4.134487   -0.795840   -0.303885
C        -4.523490    0.453413    0.153484
C        -3.569056    1.394622    0.502949
H        -1.474055    1.819045    0.666037
H        -3.873861    2.369038    0.860036
H        -2.464198   -2.070783   -0.764617
H        -4.880092   -1.530319   -0.576720
H        -5.575035    0.694284    0.237832
