10
0 2
C         0.000000    0.535674   -0.039292
C        -1.287309   -0.197813    0.002362
H        -2.137776    0.453846   -0.195249
H        -1.457550   -0.665830    0.982711
H        -1.306268   -1.013073   -0.728054
C         1.287309   -0.197813    0.002362
H        -0.000000    1.609835    0.088589
H         1.306271   -1.013069   -0.728059
H         1.457547   -0.665836    0.982709
H         2.137776    0.453847   -0.195242
