19
0 1
C         3.322437   -0.312737    0.071104
C         1.845527   -0.300885    0.431135
H         3.780493    0.662669    0.247529
H         3.466771   -0.558380   -0.982717
H         3.870422   -1.048155    0.660552
C         1.055464    0.719923   -0.374245
H         1.727640   -0.083707    1.497030
H         1.415919   -1.290820    0.269959
C        -0.415705    0.750282   -0.036983
H         1.166427    0.517394   -1.442846
H         1.460360    1.721322   -0.201278
O        -0.985211   -0.497976   -0.395765
H        -0.927963    1.549131   -0.582148
H        -0.567616    0.920983    1.034653
C        -2.297094   -0.674078   -0.155478
C        -3.151854    0.183849    0.384430
H        -2.877037    1.175010    0.710074
H        -4.180479   -0.117518    0.508367
H        -2.605910   -1.662241   -0.472829
