28
0 1
C         1.898443    0.020726   -0.990154
O         1.489853    0.783862    0.125270
C        -0.911046    0.457289   -0.041841
C        -0.929186   -0.614248    0.841235
C        -1.983075    0.636006   -0.901720
C        -3.063161   -0.231685   -0.876591
C        -3.074880   -1.296000    0.007553
C        -2.002327   -1.486451    0.864862
H        -0.085959   -0.766631    1.501994
H        -2.002944   -2.320252    1.554780
H        -1.971981    1.462003   -1.603199
H        -3.892885   -0.079819   -1.554433
H        -3.913868   -1.978838    0.026003
C         0.246102    1.432500   -0.036296
C         0.125454    2.436709    1.093223
H         0.245708    1.968591   -0.995338
H        -0.811387    2.987556    1.016670
H         0.957117    3.139540    1.059733
H         0.143791    1.920146    2.052884
C         3.206606   -0.661348   -0.662043
H         2.013730    0.679445   -1.860803
H         1.134736   -0.726173   -1.238658
C         3.086799   -1.654282    0.483611
H         3.948079    0.103403   -0.419824
H         3.557607   -1.168392   -1.564341
H         2.767815   -1.152731    1.396262
H         4.040083   -2.144546    0.682114
H         2.353163   -2.429489    0.252965
