14
0 1
C         0.964163    0.092612   -0.083724
O         2.081347   -0.406025    0.479721
O         0.895104    1.228150   -0.462902
H         2.738545    0.305426    0.484951
C        -0.117859   -0.944552   -0.189235
C        -1.484253   -0.366109   -0.518169
H        -0.135162   -1.515033    0.741481
H         0.207869   -1.645631   -0.962585
C        -2.086429    0.432617    0.627869
H        -2.150157   -1.189893   -0.782277
H        -1.396745    0.266689   -1.402205
H        -2.199880   -0.186238    1.520514
H        -3.072105    0.814850    0.362547
H        -1.457703    1.285425    0.882577
