15
0 2
C         0.796828   -0.976711   -0.009282
O         1.943562   -1.201891   -0.117321
C         0.124300    0.345542    0.327290
C        -1.238337    0.457185   -0.352732
C        -2.244876   -0.582885    0.109735
H        -1.098874    0.389688   -1.434913
H        -1.626528    1.459388   -0.157889
H        -1.882957   -1.593158   -0.080541
H        -3.196444   -0.462340   -0.407838
H        -2.435319   -0.493982    1.181025
C         1.046056    1.520725    0.024342
H        -0.037674    0.274652    1.409810
H         1.222324    1.605591   -1.048525
H         2.010637    1.401416    0.513886
H         0.592518    2.450736    0.367439
