15
0 1
C        -2.220775   -0.552629    0.000001
O        -1.099303    0.304146    0.000000
C         0.124464   -0.381904   -0.000000
C         1.215757    0.660428   -0.000000
C        -3.471619    0.288355    0.000002
H         0.215337   -1.022009   -0.886053
H         0.215338   -1.022010    0.886052
Cl         2.818098   -0.126041   -0.000001
H         1.154491    1.285112    0.886248
H         1.154490    1.285113   -0.886248
H        -2.188254   -1.201995    0.884502
H        -2.188255   -1.201995   -0.884500
H        -3.503472    0.925232    0.883560
H        -4.356404   -0.348664    0.000003
H        -3.503474    0.925232   -0.883555
