8
0 2
C         1.180511   -0.194528   -0.000001
C        -0.177826    0.477334   -0.000011
H         1.980319    0.547816    0.000104
H         1.293347   -0.822918   -0.883152
H         1.293255   -0.823095    0.883034
O        -1.247591   -0.363310   -0.000012
H        -0.301111    1.154054   -0.864605
H        -0.301192    1.153795    0.864790
