15
0 1
C        -1.693564    0.122059    0.000000
O        -2.301217   -1.079352    0.000002
O        -2.318011    1.148557   -0.000001
H        -3.253681   -0.907674    0.000002
C        -0.214853    0.030000   -0.000001
C         0.445357   -1.192248   -0.000001
C         1.827849   -1.226385   -0.000000
C         0.512088    1.213605   -0.000001
C         1.892856    1.175283    0.000000
C         2.550877   -0.044789    0.000001
H        -0.024017    2.152185   -0.000000
H         2.458754    2.096983    0.000001
H         3.632541   -0.074518    0.000001
H        -0.126513   -2.108406   -0.000001
H         2.343092   -2.177358    0.000000
