14
0 2
O        -0.000003    0.265316    1.421246
C         0.000000   -0.024824    0.077039
C        -0.000012    1.374654   -0.577589
H         0.886987    1.933081   -0.285395
H        -0.887020    1.933066   -0.285394
C         1.265521   -0.787498   -0.310213
H         1.295229   -0.971890   -1.384708
H         1.294192   -1.749352    0.201873
H         2.149664   -0.219668   -0.023983
C        -1.265507   -0.787520   -0.310213
H        -2.149660   -0.219705   -0.023986
H        -1.294162   -1.749374    0.201873
H        -1.295210   -0.971914   -1.384708
H        -0.000011    1.244365   -1.659688
