13
0 2
C         0.000006   -0.000001   -0.157540
C        -0.058027   -1.475257    0.015592
H        -0.069092   -1.758341    1.079969
H         0.808182   -1.968897   -0.428887
H        -0.960393   -1.899304   -0.428782
C         1.306641    0.687382    0.015491
H         2.125006    0.117953   -0.429008
H         1.557455    0.819269    1.079847
H         1.300993    1.684378   -0.428941
C        -1.248616    0.787880    0.015460
H        -1.488411    0.938980    1.079804
H        -2.109162    0.284552   -0.429157
H        -1.164602    1.781389   -0.428865
