14
0 2
O        -0.426912    0.000016    1.672737
Si         0.017188   -0.000000    0.065097
C         0.993235    1.531037   -0.350480
H         0.424869    2.431910   -0.118096
H         1.248309    1.551999   -1.411999
H         1.926287    1.567279    0.213734
C         0.993207   -1.531059   -0.350465
H         1.926261   -1.567310    0.213744
H         1.248275   -1.552039   -1.411985
H         0.424827   -2.431919   -0.118067
C        -1.659884    0.000009   -0.767537
H        -2.235769    0.884797   -0.499932
H        -2.235787   -0.884762   -0.499916
H        -1.511949   -0.000002   -1.849842
