16
0 1
C        -0.509268    0.564564    0.269242
O         0.655348    0.088555   -0.439524
N         1.694611   -0.203501    0.420657
O         2.638759   -0.573038   -0.157638
C        -1.701602   -0.241654   -0.208644
C        -0.647514    2.050057    0.021335
H        -0.330857    0.372366    1.329830
H        -1.517458    2.441294    0.549288
H        -0.771182    2.249668   -1.043467
H         0.235511    2.583523    0.371327
C        -1.594569   -1.725283    0.101644
H        -1.815618   -0.086340   -1.284405
H        -2.593322    0.177602    0.263193
H        -0.727226   -2.166849   -0.387931
H        -2.479772   -2.259828   -0.241874
H        -1.497498   -1.897170    1.175276
