13
0 1
C         1.800316   -0.563022    0.231360
O         0.969034    0.163805   -0.648725
H         1.231346   -1.296209    0.806851
H         2.312490    0.110037    0.927840
H         2.540254   -1.076114   -0.378256
C         0.000000    0.926668    0.000000
O        -0.969034    0.163805    0.648725
H        -0.452005    1.549976   -0.778083
H         0.452005    1.549975    0.778084
C        -1.800316   -0.563022   -0.231360
H        -2.312490    0.110037   -0.927840
H        -2.540254   -1.076114    0.378256
H        -1.231346   -1.296209   -0.806851
