8
0 2
C         0.177826    0.477334   -0.000007
O         1.247591   -0.363310   -0.000009
C        -1.180511   -0.194528   -0.000001
H         0.301123    1.154017   -0.864631
H         0.301180    1.153832    0.864764
H        -1.293334   -0.822943   -0.883135
H        -1.980319    0.547816    0.000075
H        -1.293268   -0.823070    0.883050
