17
0 1
C         2.452888   -0.159987    0.000000
C         1.653340    0.966734   -0.000001
C         0.269898    0.849074   -0.000001
C         1.859279   -1.409399    0.000001
C         0.481099   -1.548000    0.000001
C        -0.326652   -0.419294   -0.000000
H         2.475157   -2.298904    0.000002
H         0.043369   -2.534037    0.000002
O        -1.668933   -0.441876   -0.000000
C        -2.332237   -1.689360    0.000003
H        -3.393746   -1.461694    0.000005
H        -2.084492   -2.268159    0.892452
H        -2.084495   -2.268162   -0.892443
H         3.528926   -0.062710    0.000000
C        -0.549613    2.018858   -0.000002
N        -1.181777    2.974545   -0.000003
H         2.091175    1.955106   -0.000002
