15
0 2
C        -1.047256    0.000007   -0.689617
O        -2.115458    0.000001   -0.206430
C         0.319463   -0.000000    0.002447
C         0.134781   -0.000025    1.516869
C         1.058351    1.253288   -0.463926
H         0.534738    2.159408   -0.158082
H         1.161799    1.267278   -1.548465
H         2.055506    1.272658   -0.022209
H        -0.415829    0.880851    1.845049
H         1.109002   -0.000030    2.008190
H        -0.415823   -0.880916    1.845021
C         1.058359   -1.253268   -0.463966
H         0.534753   -2.159402   -0.158152
H         2.055515   -1.272646   -0.022250
H         1.161808   -1.267222   -1.548506
