18
0 1
C         0.555119    2.486561   -0.080873
C        -0.608006    1.742638   -0.044334
C        -0.545916    0.365277   -0.018530
C         1.771883    1.829480   -0.067103
C         1.837888    0.448324   -0.013035
C         0.675356   -0.316074    0.011166
H         2.692757    2.396720   -0.091405
H         2.801074   -0.036159    0.016156
O         0.658310   -1.651007    0.104021
C         1.885385   -2.348952    0.165683
H         1.622732   -3.400139    0.233035
H         2.462368   -2.060158    1.047001
H         2.480691   -2.181035   -0.734181
H         0.509483    3.565219   -0.117265
N        -1.816421   -0.361924   -0.029064
O        -1.892997   -1.366065   -0.699028
O        -2.728343    0.116121    0.616471
H        -1.580173    2.213115   -0.039446
