14
0 1
N         0.048449    1.426419   -0.350949
C         1.067172   -0.821474   -0.660221
C        -1.401729   -0.499334   -0.287589
C        -0.007998    0.027891    0.016951
H         0.945560   -0.807153   -1.743980
H         1.017507   -1.863330   -0.334284
H         2.054568   -0.429753   -0.414878
H         0.958422    1.810693   -0.129584
H        -0.125250    1.550474   -1.339003
H        -1.616874   -0.448248   -1.356363
H        -2.133850    0.099681    0.249384
H        -1.494270   -1.540948    0.023010
O         0.221337    0.034226    1.421216
H         0.339681   -0.872652    1.717771
