8
0 2
C         0.177826    0.477334   -0.000009
O         1.247591   -0.363310   -0.000012
C        -1.180511   -0.194528   -0.000001
H         0.301115    1.154042   -0.864613
H         0.301188    1.153807    0.864782
H        -1.293343   -0.822925   -0.883146
H        -1.980319    0.547816    0.000095
H        -1.293259   -0.823087    0.883039
