13
0 1
C         0.000000    1.355746   -0.000000
C         1.203672    0.682186   -0.000000
C        -1.212804    0.687301    0.000000
C        -1.189882   -0.699008    0.000000
C         0.009308   -1.385347    0.000000
C         1.209892   -0.699160   -0.000000
O        -2.393908    1.332769    0.000000
H        -2.242240    2.285564    0.000000
F        -0.020666    2.696312   -0.000000
F         2.346459    1.356521   -0.000000
F         2.360055   -1.363314   -0.000000
F         0.009663   -2.711971    0.000000
F        -2.331913   -1.377328    0.000000
