17
0 1
C        -1.954262    0.612946   -0.000000
C        -1.354883   -0.632946   -0.000000
C         0.028254   -0.763152   -0.000000
C        -1.147815    1.743202   -0.000000
C         0.224722    1.640493   -0.000000
C         0.813889    0.377376   -0.000000
H        -1.608057    2.722407   -0.000000
H         0.861583    2.513115   -0.000000
O         2.167202    0.355313   -0.000000
C         2.819207   -0.894572    0.000001
H         3.884346   -0.680311    0.000002
H         2.567356   -1.475171   -0.890970
H         2.567355   -1.475170    0.890972
H         0.447950   -1.756638   -0.000000
H        -3.033519    0.702571    0.000000
O        -2.073245   -1.788543    0.000000
H        -3.013348   -1.585046    0.000000
