12
0 1
O        -1.009359   -0.715651   -0.000001
C         0.042413    0.115190   -0.000000
C        -2.290661   -0.088597   -0.000000
O        -0.061010    1.312349    0.000001
C         1.314299   -0.641665   -0.000001
H        -3.015957   -0.896284   -0.000002
H        -2.409651    0.533372   -0.885504
H        -2.409652    0.533369    0.885506
C         2.474281   -0.009577    0.000000
H         1.239381   -1.720545   -0.000002
H         2.504993    1.072339    0.000002
H         3.411846   -0.547948   -0.000000
