7
0 2
C        -1.490638   -0.000003   -0.020199
C        -0.017331    0.000000   -0.007753
H        -2.012589   -0.941443    0.032733
H        -2.012595    0.941434    0.032733
F         0.487141   -1.082904   -0.618354
F         0.478278   -0.000035    1.248009
F         0.487136    1.082942   -0.618293
