22
0 1
C         2.152291   -1.551553   -0.796389
O         2.184814   -0.526454    0.165753
C        -0.104681    0.253308   -0.079800
C        -0.598719   -0.522903    0.960443
C        -0.987701    0.745057   -1.027932
C        -2.344600    0.479028   -0.936916
C        -2.829570   -0.293236    0.103677
C        -1.951400   -0.796550    1.050917
H         0.090785   -0.922457    1.692720
H        -2.324113   -1.405753    1.864014
H        -0.609630    1.341468   -1.849985
H        -3.022215    0.869801   -1.684635
H        -3.887628   -0.507623    0.174837
H         2.469038   -1.180052   -1.778078
H         2.846284   -2.322533   -0.468655
H         1.153554   -1.987550   -0.894693
C         1.370013    0.584294   -0.151504
C         1.744193    1.690848    0.814563
H         1.597436    0.908612   -1.176487
H         1.163923    2.589625    0.608552
H         2.805013    1.922209    0.726103
H         1.540086    1.376126    1.837933
