20
0 1
O        -0.867317   -0.139480   -0.800031
C        -1.775967    0.058721    0.165585
C         0.078446   -1.203130   -0.597902
O        -1.844508   -0.605700    1.162937
C        -2.676686    1.208547   -0.170396
C         1.263535   -0.751723    0.226994
H        -3.138086    1.048885   -1.143929
H        -2.090551    2.125272   -0.232628
H        -3.438589    1.308907    0.595971
C         2.060901    0.377415   -0.409061
H         1.910726   -1.621483    0.375942
H         0.911745   -0.456546    1.217919
C         3.238806    0.813920    0.447241
H         1.400726    1.228354   -0.589060
H         2.418705    0.056394   -1.391938
H         2.903197    1.168017    1.423703
H         3.797791    1.622042   -0.025101
H         3.930408   -0.013449    0.617787
H         0.385570   -1.488181   -1.603418
H        -0.431250   -2.039277   -0.123262
