27
0 1
O        -0.047185    0.110497    0.607755
C        -1.319060   -0.161160    0.011169
C        -1.224643   -1.332474   -0.961938
H        -0.828344   -2.212796   -0.458032
H        -0.580823   -1.104328   -1.810997
C        -2.196653   -0.539470    1.192722
H        -3.204664   -0.791397    0.862544
H        -2.254623    0.290000    1.896739
H        -1.773446   -1.398761    1.711947
C        -1.891020    1.066567   -0.690119
H        -1.280429    1.367069   -1.541578
H        -1.959674    1.904954    0.002365
H        -2.891754    0.848237   -1.063821
H        -2.212522   -1.575543   -1.354326
C         1.022034    0.604309   -0.185959
C         2.284327   -0.147185    0.211145
C         2.230762   -1.640621   -0.057537
H         2.456508    0.032367    1.275712
H         3.127846    0.297686   -0.322839
C         1.191953    2.099306    0.029412
H         0.821670    0.411344   -1.245264
H         1.377015    2.298481    1.085700
H         0.303436    2.651466   -0.268420
H         2.038071    2.477802   -0.546306
H         1.422443   -2.104883    0.504894
H         3.164080   -2.123440    0.233219
H         2.066494   -1.847867   -1.116949
