10
0 1
C        -1.546957    0.804858    0.051586
S        -0.559137   -0.674252   -0.159917
H        -1.140084    1.654833   -0.493543
H        -1.654632    1.046757    1.107185
H        -2.528639    0.565628   -0.360157
O         0.843038   -0.231112    0.587359
C         1.783176    0.446058   -0.234760
H         1.394137    1.409951   -0.571479
H         2.048384   -0.157569   -1.104326
H         2.665405    0.611839    0.381156
