13
0 2
C         1.068144    1.115120   -0.000000
C         1.161485   -0.288255   -0.000000
C         0.030988   -1.053165   -0.000000
C        -0.177436    1.747763    0.000000
C        -1.327661    1.012098    0.000001
C        -1.268968   -0.434324   -0.000001
H        -0.217268    2.828703    0.000001
H        -2.307957    1.466943    0.000001
O        -2.309194   -1.113523    0.000001
H         0.086750   -2.132205   -0.000000
H         1.974424    1.709372   -0.000000
O         2.367209   -0.911686   -0.000000
H         3.080619   -0.266562   -0.000001
