19
0 1
C         1.903274   -0.619666    0.000000
C         1.333847    0.635427    0.000001
C        -0.046867    0.790434    0.000001
C         1.080751   -1.736198   -0.000001
C        -0.294340   -1.599994   -0.000001
C        -0.873311   -0.336154   -0.000000
H         1.533682   -2.718231   -0.000001
H        -0.906776   -2.488174   -0.000002
O        -2.211481   -0.120061   -0.000000
C        -3.076082   -1.234131    0.000001
H        -4.085275   -0.832323    0.000002
H        -2.932481   -1.849104    0.891732
H        -2.932483   -1.849104   -0.891731
H         1.939304    1.534302    0.000001
O         3.249777   -0.827033   -0.000000
H         3.710705    0.017270    0.000002
C        -0.608841    2.154764    0.000001
O         0.070427    3.151714   -0.000001
H        -1.707043    2.221512   -0.000002
