10
0 2
C        -0.040979    1.272349    0.000003
C        -1.220786    0.544706   -0.000002
C        -1.141882   -0.843029    0.000002
C         0.119245   -1.363236    0.000003
C         1.260319   -0.607240   -0.000011
N         1.166893    0.724133    0.000002
H        -0.070662    2.355979    0.000005
H        -2.177408    1.050249   -0.000002
H        -2.030384   -1.461164    0.000006
H         2.254703   -1.035286    0.000017
