11
0 1
O         0.153059   -0.526604   -0.000023
N        -1.137161   -0.025877   -0.000015
O        -1.269138    1.167114    0.000025
O        -1.971900   -0.876248    0.000028
C         1.185564    0.479328   -0.000005
C         2.489715   -0.274658   -0.000011
H         1.071424    1.104257    0.884501
H         1.071428    1.104281   -0.884495
H         2.577447   -0.903533    0.884664
H         3.314533    0.437532    0.000000
H         2.577452   -0.903509   -0.884703
