13
0 2
C        -0.905869   -1.165841    0.015611
C         0.000011   -0.000021   -0.157558
H        -1.886441   -0.985421   -0.428774
H        -0.488849   -2.071440   -0.428850
C         1.462587   -0.201577    0.015621
H         2.038312    0.612368   -0.428889
H         1.796663   -1.141000   -0.428712
H         1.743228   -0.240148    1.080001
C        -0.556721    1.367425    0.015322
H        -1.549475    1.458961   -0.429220
H         0.089817    2.126356   -0.429163
H        -0.663653    1.629971    1.079646
H        -1.079648   -1.389567    1.079989
