12
0 2
C        -1.739743   -0.842635   -0.000001
C        -0.479149   -1.434484    0.000000
C         0.626756   -0.633224   -0.000001
C        -1.885148    0.554295    0.000002
C        -0.788541    1.362654    0.000001
C         0.548129    0.816114   -0.000010
H        -2.618938   -1.472133    0.000000
H        -0.359324   -2.508956    0.000002
F         1.834941   -1.171557    0.000001
H        -2.878051    0.983057    0.000005
H        -0.866206    2.441236    0.000005
O         1.564278    1.520562    0.000003
