13
0 1
C         0.806669   -0.000000   -0.301243
O        -0.442930   -0.000006    0.422949
N        -1.527163    0.000021   -0.431639
O        -2.536066   -0.000013    0.154953
C         1.554591   -1.264815    0.057044
H         1.757249   -1.297954    1.127943
H         2.505829   -1.302039   -0.474351
H         0.974370   -2.146612   -0.211709
C         1.554586    1.264815    0.057052
H         0.552146    0.000003   -1.362658
H         1.757243    1.297948    1.127952
H         0.974362    2.146612   -0.211695
H         2.505824    1.302046   -0.474342
