17
0 1
C        -1.435613    1.324917   -0.000000
C        -1.246513   -0.047613   -0.000001
C         0.033739   -0.601375   -0.000000
C        -0.322976    2.152046    0.000000
C         0.948001    1.621451    0.000000
C         1.133311    0.240408    0.000000
H        -0.453099    3.225561    0.000000
H         1.823173    2.256282    0.000001
O         2.414131   -0.185742    0.000001
C         2.661993   -1.576255    0.000001
H         3.742004   -1.689629    0.000002
H         2.248196   -2.052791   -0.891853
H         2.248195   -2.052790    0.891856
H        -2.435310    1.733482   -0.000001
H         0.141561   -1.674244   -0.000000
C        -2.379630   -0.923669   -0.000001
N        -3.283092   -1.628485   -0.000001
