16
0 1
C        -1.755837   -0.599749   -0.159478
O        -0.432826   -0.519703   -0.390098
C         0.221739    0.687261   -0.036615
C         1.690673    0.546782   -0.358821
H        -0.225798    1.516204   -0.593782
C        -2.551395    0.322043    0.365385
C         2.381834   -0.535783    0.454979
H         2.164023    1.514905   -0.177650
H         1.794579    0.340833   -1.426382
H         2.310546   -0.326733    1.524257
H         3.438970   -0.604795    0.198543
H         1.925592   -1.507998    0.273827
H         0.073309    0.878085    1.032233
H        -2.131769   -1.566388   -0.470630
H        -2.209089    1.294204    0.684322
H        -3.599836    0.095982    0.483341
