16
0 1
C        -0.383804   -0.000227    0.032929
O         0.731448   -0.047650   -0.877407
O         1.951224    0.103611   -0.146997
H         2.342025   -0.773455   -0.250034
C        -0.317545   -1.163479    1.009208
H        -0.253423   -2.109425    0.469939
H        -1.212468   -1.185250    1.631198
H         0.545936   -1.070931    1.665834
C        -0.407051    1.337603    0.752967
H         0.482441    1.457863    1.368025
H        -1.284477    1.404046    1.396975
H        -0.442303    2.153559    0.031604
C        -1.566433   -0.140653   -0.910135
H        -1.524836   -1.090691   -1.442122
H        -1.568338    0.666784   -1.641269
H        -2.496939   -0.099653   -0.344728
