14
0 1
C         0.002236    0.226418    0.583603
O         0.024431    1.422232   -0.176172
H         0.945785    1.590779   -0.407939
C         0.950697   -0.786234   -0.020063
O         2.218020   -0.146836   -0.118332
H         0.584205   -1.084725   -1.004670
H         1.007803   -1.669770    0.623482
H         2.788872   -0.647487   -0.705509
C        -1.434391   -0.253395    0.591103
H         0.315574    0.431899    1.615087
O        -1.926121   -0.446714   -0.716372
H        -2.043316    0.477184    1.133712
H        -1.510538   -1.209846    1.109796
H        -1.730273    0.361776   -1.204816
