18
0 1
C         1.681717   -0.391922    0.274815
O         0.416049   -0.004728   -0.201603
C        -0.613120   -0.896863    0.152381
C        -1.928517   -0.374206   -0.378674
H        -0.401202   -1.892572   -0.260235
C         2.699448    0.632538   -0.159971
H         1.939763   -1.384867   -0.118509
H         1.657845   -0.473336    1.370135
H         2.727155    0.704530   -1.246974
H         3.693055    0.357001    0.194775
H         2.448074    1.613931    0.241622
C        -2.324642    0.964175    0.224609
H        -2.697558   -1.123351   -0.173987
H        -1.852507   -0.288160   -1.465011
H        -2.430884    0.887784    1.308839
H        -3.275299    1.312874   -0.179444
H        -1.568515    1.719482    0.015817
H        -0.657632   -0.997817    1.246830
