12
0 2
C        -0.437031    1.380631    0.000000
C        -0.790308    0.023866   -0.000000
C         0.156936   -0.953610   -0.000000
C         0.909977    1.752264    0.000000
C         1.893476    0.804094    0.000001
C         1.558886   -0.600991    0.000001
H        -1.215526    2.129774    0.000000
Cl        -2.473486   -0.389116   -0.000001
H        -0.099344   -2.002942   -0.000000
H         1.163060    2.803858    0.000001
H         2.943640    1.060329    0.000001
O         2.438227   -1.476697    0.000001
