14
0 2
O        -0.000001    0.265316    1.421246
C         0.000000   -0.024824    0.077039
C        -0.000004    1.374654   -0.577589
H         0.886998    1.933076   -0.285395
H        -0.887008    1.933071   -0.285394
C         1.265516   -0.787506   -0.310213
H         1.295223   -0.971898   -1.384708
H         1.294181   -1.749359    0.201873
H         2.149662   -0.219680   -0.023984
C        -1.265511   -0.787513   -0.310213
H        -2.149661   -0.219692   -0.023985
H        -1.294172   -1.749366    0.201874
H        -1.295217   -0.971906   -1.384708
H        -0.000004    1.244365   -1.659688
