8
0 2
C        -1.246692   -0.253273   -0.012204
C         0.007327    0.517788    0.022113
H        -2.192679    0.252797   -0.133617
H        -1.225036   -1.316489    0.172194
O         1.105313   -0.374984   -0.036416
H         0.054954    1.123190    0.943212
H         0.035620    1.231202   -0.814944
H         1.920833    0.122076    0.065027
