12
0 2
N         0.000000    1.396744   -0.057628
C        -1.292157   -0.685382    0.032047
C         1.292157   -0.685382    0.032046
C        -0.000000    0.008881   -0.195819
H        -1.555796   -0.739107    1.102095
H        -1.260778   -1.707953   -0.343139
H        -2.114551   -0.172818   -0.473283
H        -0.838362    1.816925    0.311203
H         0.838362    1.816924    0.311205
H         1.555797   -0.739107    1.102095
H         2.114551   -0.172819   -0.473283
H         1.260778   -1.707953   -0.343138
