27
0 1
O        -0.000000   -0.000000   -0.316163
C        -1.080581   -0.532174    0.433641
C        -2.333303   -0.391613   -0.411757
C        -2.704458    1.052289   -0.703690
H        -3.154860   -0.895020    0.103772
H        -2.168665   -0.933313   -1.346970
H        -1.895923    1.557694   -1.229499
H        -2.900351    1.601980    0.219467
C         1.080581    0.532174    0.433641
C         2.333303    0.391613   -0.411758
C         2.704458   -1.052289   -0.703691
H         3.154860    0.895020    0.103771
H         2.168665    0.933313   -1.346970
H         1.895923   -1.557694   -1.229499
H         2.900351   -1.601980    0.219467
C        -0.804470   -1.976864    0.811413
H        -1.210288    0.061090    1.348548
H        -1.613755   -2.379205    1.422297
H         0.121773   -2.067407    1.378584
H        -0.712163   -2.586316   -0.088398
C         0.804470    1.976864    0.811413
H         1.210289   -0.061089    1.348548
H         1.613755    2.379205    1.422296
H        -0.121773    2.067408    1.378584
H         0.712163    2.586316   -0.088399
H        -3.601254    1.111660   -1.320780
H         3.601254   -1.111660   -1.320781
