12
0 2
C         0.888905   -0.052207    0.686308
C        -0.605597    0.044162    0.461993
C        -1.163088   -1.153772   -0.216116
H        -2.234456   -1.249351   -0.316819
H        -0.522803   -1.833790   -0.758910
O        -0.910343    1.234966   -0.266563
H        -1.087219    0.184560    1.433341
H        -0.404683    1.191692   -1.087062
O         1.502425   -0.137970   -0.591880
H         1.118255   -0.935495    1.292039
H         1.223992    0.842748    1.217576
H         2.448929   -0.005424   -0.505731
