19
0 1
C         1.649608   -0.105259   -0.603318
O        -0.649073   -0.479459   -0.328917
N        -1.883798   -0.133545    0.156281
O        -2.690832   -0.932401   -0.128830
C         2.083334   -1.439978   -0.017868
C         0.385748    0.500679    0.001046
H         1.278906   -2.172185   -0.075516
H         2.386375   -1.348969    1.024965
H         2.935270   -1.834010   -0.571596
C         0.478847    0.661245    1.509191
H         1.350290    1.266690    1.760179
H         0.578398   -0.304591    2.000761
H        -0.406856    1.156531    1.901942
C         0.055789    1.817319   -0.681098
H         0.854319    2.537293   -0.501674
H        -0.873232    2.234357   -0.296299
H        -0.044208    1.674906   -1.756998
H         1.478001   -0.215385   -1.676000
H         2.448612    0.631024   -0.489473
