13
0 2
C        -0.514209    1.381655   -0.000000
C        -0.894669    0.027341   -0.000001
C         0.054848   -0.962705   -0.000000
C         0.835502    1.736287    0.000001
C         1.805363    0.772984    0.000002
C         1.457747   -0.627043    0.000001
H         1.105193    2.783554    0.000002
H         2.858731    1.017077    0.000003
O         2.327399   -1.514226    0.000002
H        -1.280316    2.144018   -0.000000
H        -0.212305   -2.009864   -0.000001
C        -2.288226   -0.306945   -0.000002
N        -3.404091   -0.564345   -0.000003
