13
0 2
C         1.700305   -0.926060   -0.000001
C         0.415213   -1.442577   -0.000000
C        -0.674326   -0.595104   -0.000001
C         1.923048    0.462827    0.000001
C         0.870475    1.324026    0.000000
C        -0.494452    0.854443   -0.000006
H         2.937526    0.837868    0.000003
H         1.004261    2.397150    0.000003
O        -1.462725    1.622218    0.000003
H         2.543419   -1.603365    0.000000
H         0.261130   -2.515717    0.000001
O        -1.939749   -1.021730    0.000001
H        -1.968127   -1.985175    0.000003
