26
0 1
C         2.614302   -0.573025    1.529147
C         1.623431    0.286110    1.086418
C         3.551767   -1.074694    0.641940
C         3.490332   -0.716135   -0.694089
C         2.494307    0.137144   -1.136509
C         1.556914    0.647489   -0.250380
O        -0.659165    1.648413    0.050083
C        -1.551750    0.624991   -0.035404
C        -1.370111   -0.513297   -0.806938
C        -2.710044    0.774293    0.718831
C        -3.680203   -0.205648    0.695251
C        -3.511217   -1.345922   -0.077915
C        -2.356467   -1.489308   -0.821920
H        -0.466890   -0.661640   -1.377926
H        -2.206862   -2.376084   -1.423779
H        -2.827412    1.670733    1.312167
H        -4.578803   -0.078284    1.284535
H        -4.272425   -2.113533   -0.095011
H         2.442350    0.405224   -2.185457
H         4.324654   -1.747132    0.989402
H         4.214710   -1.108347   -1.395642
H         2.653172   -0.853582    2.573438
H         0.887092    0.672979    1.777461
C         0.507826    1.610949   -0.743315
H         0.253505    1.395250   -1.784957
H         0.895705    2.629431   -0.705595
