21
0 1
C        -1.095569   -0.050980   -0.000001
C        -0.538994    1.227620    0.000005
C         0.825128    1.405266    0.000009
C        -0.239425   -1.143567   -0.000005
C         1.132373   -0.983488   -0.000002
C         1.671059    0.299386    0.000004
H        -0.674988   -2.133170   -0.000010
H         1.769884   -1.854143   -0.000006
O         2.993222    0.567042    0.000007
C         3.903220   -0.512687    0.000006
H         4.895172   -0.070231    0.000013
H         3.783485   -1.132580   -0.891473
H         3.783477   -1.132587    0.891479
H        -1.176896    2.100356    0.000008
C        -2.562350   -0.292628   -0.000006
O        -3.006858   -1.418131   -0.000006
C        -3.491113    0.895366   -0.000010
H        -3.323335    1.518380   -0.879658
H        -3.323345    1.518376    0.879643
H        -4.516000    0.536151   -0.000017
H         1.265666    2.392439    0.000014
