15
0 1
O         0.419914   -0.000002   -0.846465
Cl         1.908199   -0.000000   -0.064063
C        -0.735717    0.000000    0.034378
C        -1.872919   -0.000005   -0.974282
H        -1.822151    0.884725   -1.607270
H        -2.828376   -0.000004   -0.450315
H        -1.822150   -0.884740   -1.607263
C        -0.756079   -1.258904    0.882300
H        -0.701444   -2.143902    0.249054
H        -1.679189   -1.301606    1.460355
H         0.080020   -1.278555    1.579371
C        -0.756081    1.258912    0.882290
H        -0.701448    2.143904    0.249036
H         0.080018    1.278569    1.579360
H        -1.679192    1.301616    1.460345
