28
0 1
C         0.121553    1.037677   -0.133236
C         0.780534   -0.315814   -0.031271
N        -0.000296   -1.307545    0.014501
C        -1.383609   -0.846772   -0.040823
N        -1.242254    0.567168   -0.447941
C         0.642224    1.888231   -1.284367
H         0.627069    1.319630   -2.213001
H         1.656097    2.230180   -1.088788
H        -0.013775    2.750181   -1.406963
C         0.251657    1.804720    1.185690
H        -0.129896    1.239418    2.036758
H        -0.282797    2.752200    1.121504
H         1.302466    2.015861    1.370218
C        -2.021949   -1.058685    1.329483
H        -1.495709   -0.512366    2.112007
H        -1.981227   -2.116557    1.581568
H        -3.066065   -0.749811    1.315607
C        -2.148401   -1.607110   -1.108769
H        -1.631425   -1.523430   -2.062535
H        -3.142617   -1.174594   -1.216647
H        -2.244339   -2.659606   -0.842863
O        -2.270712    1.405427   -0.020435
H        -2.236276    1.461184    0.947288
C         2.271094   -0.503036    0.065124
O         3.021857    0.442824    0.189355
N         2.663315   -1.787640    0.009608
H         1.966887   -2.511874   -0.039799
H         3.638482   -2.005581    0.110122
