18
0 1
C         2.744530    0.357809    0.196070
C         2.059534   -0.939596   -0.279353
C         0.740668   -0.149078   -0.401565
H         2.004838   -1.677766    0.522931
H         2.444688   -1.426466   -1.174159
C        -1.741621    0.065437   -0.073016
O        -1.767553    1.168439   -0.542472
O        -2.839468   -0.517708    0.446565
H        -3.569332    0.110974    0.346304
C         1.348562    0.925157    0.523540
H         3.211079    0.891963   -0.631098
H         3.463746    0.279783    1.009142
H         1.142870    1.965713    0.284582
H         1.078957    0.745000    1.566185
C        -0.540680   -0.831907    0.008558
H        -0.474885   -1.215792    1.029580
H        -0.744507   -1.701650   -0.623208
H         0.632760    0.255466   -1.408405
