17
0 2
C        -2.171218    0.422427   -0.141009
N        -2.274444   -0.779572    0.276068
O        -3.186941   -1.535722    0.481860
C        -0.873270    1.121393   -0.215428
H        -3.066373    0.989549   -0.376872
C         0.411227    0.377176   -0.108408
O        -0.896640    2.325692   -0.342622
C         0.568649   -0.936839   -0.534480
C         1.804532   -1.552592   -0.442771
C         2.884797   -0.866336    0.083872
C         2.734468    0.445746    0.506210
C         1.506537    1.067436    0.400971
H         1.373645    2.095008    0.709116
H         3.848265   -1.352562    0.160942
H         3.578925    0.984482    0.914323
H        -0.262406   -1.478591   -0.961086
H         1.923356   -2.571111   -0.786547
