22
0 2
C         0.438007   -1.663666    0.000002
C         1.407286   -0.710473    0.000000
C         1.006637    0.645498   -0.000001
C        -0.343772    1.040374   -0.000001
C        -1.323095    0.075689    0.000000
C        -0.964221   -1.333979    0.000004
O        -1.826164   -2.228749    0.000002
C        -0.698420    2.499002   -0.000003
H         0.186554    3.126840   -0.000007
H        -1.297312    2.750916    0.876687
H        -1.297319    2.750912   -0.876689
C        -2.772278    0.429777    0.000001
H        -3.032756    1.026391   -0.877046
H        -3.032754    1.026398    0.877043
H        -3.372280   -0.475397    0.000005
H         0.685548   -2.717006    0.000002
C         2.867184   -1.057888   -0.000001
H         3.000536   -2.136846   -0.000000
H         3.378775   -0.668083    0.884715
H         3.378773   -0.668085   -0.884719
O         1.935781    1.627209   -0.000002
H         2.821330    1.250272   -0.000003
