14
0 1
C         0.000000    1.204054    1.076568
C         0.000000    1.193405   -0.312663
C         0.000000   -0.000000   -1.012242
C        -0.000000    0.000000    1.756333
C        -0.000000   -1.204054    1.076568
C        -0.000000   -1.193405   -0.312663
H        -0.000000    0.000000    2.838203
H        -0.000000   -2.143107    1.615961
O        -0.000000   -2.338711   -1.043622
H         0.000001   -3.099852   -0.455562
H         0.000000   -0.000000   -2.092461
O         0.000000    2.338711   -1.043622
H        -0.000001    3.099852   -0.455562
H         0.000000    2.143107    1.615961
