12
0 2
C         0.000002   -0.985798    0.000000
C         0.000001   -0.280545    1.208951
C        -0.000001    1.081422    1.238021
C         0.000001   -0.280545   -1.208951
C        -0.000001    1.081422   -1.238021
C         0.000001    1.826731   -0.000000
H        -0.000002    1.637991   -2.163388
O        -0.000004    3.066285   -0.000000
H        -0.000002    1.637991    2.163388
H         0.000002   -2.065295    0.000000
Cl         0.000001   -1.188149   -2.682042
Cl         0.000001   -1.188149    2.682042
