14
0 2
C         1.573478    1.252428    0.172523
C         2.178310    0.000002    0.000000
C         1.573481   -1.252426   -0.172523
C         0.253619   -1.588516   -0.144164
C         0.253616    1.588516    0.144163
C        -0.926094    0.762915   -0.074429
C        -0.926093   -0.762917    0.074424
H        -0.004411    2.635596    0.245002
H         2.261969    2.076859    0.316133
H         3.260950    0.000003    0.000001
H         2.261973   -2.076856   -0.316130
H        -0.004406   -2.635596   -0.245001
O        -1.978625    1.296184   -0.350264
O        -1.978621   -1.296187    0.350267
