20
0 2
C        -1.253675   -0.697665    0.000003
C        -2.151525    0.367145    0.000000
C        -1.690008    1.691644    0.000000
C        -0.343867    1.978775    0.000001
C         0.548783    0.919961    0.000002
C         0.088077   -0.385439    0.000005
H        -1.569708   -1.729177    0.000004
H        -2.430128    2.479576   -0.000002
H         0.010917    3.000021   -0.000001
C         1.236312   -1.318879    0.000013
N         2.394411   -0.467031   -0.000001
C         2.018663    0.933545   -0.000001
O         1.268201   -2.508616    0.000004
O         2.798955    1.831147   -0.000008
O         3.574530   -0.880121   -0.000006
O        -3.485104    0.222911   -0.000002
C        -4.029769   -1.084579   -0.000004
H        -5.107920   -0.958804   -0.000005
H        -3.727320   -1.636010    0.892386
H        -3.727318   -1.636009   -0.892394
