19
0 1
C        -0.217600    0.158098    0.000002
C         0.351375   -1.111803    0.000001
C         1.720499   -1.267299   -0.000001
C         0.610802    1.272102    0.000002
C         1.982175    1.126872    0.000000
C         2.538991   -0.145682   -0.000001
H         0.158970    2.254114    0.000002
H         2.624733    1.999481   -0.000001
O         3.877809   -0.350170   -0.000003
H         4.342030    0.492843   -0.000004
C        -1.680081    0.375247    0.000001
O        -2.210051    1.456045    0.000004
O        -2.374495   -0.772135   -0.000002
H         2.176147   -2.247441   -0.000002
H        -0.289732   -1.980877    0.000001
C        -3.793113   -0.633623   -0.000002
H        -4.188973   -1.644613   -0.000005
H        -4.123781   -0.093443   -0.885397
H        -4.123781   -0.093450    0.885397
