14
0 2
C         0.961379   -1.208730    0.000000
C         1.638785    0.000000    0.000000
C         0.961379    1.208730    0.000003
C        -2.573030    0.000000    0.000008
O        -3.287221    1.027692   -0.000007
O        -3.287221   -1.027692   -0.000006
C        -0.418425   -1.204544    0.000003
C        -0.418425    1.204544    0.000005
C        -1.107562    0.000000    0.000005
H         1.515058    2.136064    0.000002
H        -0.968998    2.135663    0.000007
H         1.515058   -2.136064   -0.000002
H        -0.968998   -2.135663    0.000003
Cl         3.366989   -0.000000   -0.000003
