7
0 2
C         0.994180   -0.011740    0.000002
O         0.978962    1.244995    0.000000
O         2.138051   -0.472804    0.000001
C        -0.238136   -0.861548   -0.000000
Cl        -1.707006    0.120673   -0.000001
H        -0.226632   -1.494624    0.884302
H        -0.226630   -1.494621   -0.884304
