31
0 2
C         0.339594    1.325565   -0.019236
C        -1.145400    1.191132   -0.351271
C        -1.804313   -0.060429    0.210496
H        -1.268095    1.174168   -1.438870
H        -1.656782    2.086028    0.010615
C        -1.072880   -1.266895   -0.341924
C         0.417715   -1.302379   -0.012844
H        -1.195816   -1.267711   -1.430158
H        -1.534928   -2.181705    0.029694
N         1.032959    0.031001   -0.250686
C         0.974785    2.355254   -0.945959
H         0.905061    2.030569   -1.983929
H         2.023838    2.499891   -0.702713
H         0.450981    3.306052   -0.843372
C         0.551416    1.757595    1.434108
H         0.024202    1.117169    2.138524
H         0.190670    2.777320    1.571149
H         1.613492    1.730578    1.671595
C         1.113587   -2.295461   -0.935998
H         1.024956   -1.979056   -1.975121
H         0.646564   -3.274900   -0.830159
H         2.169216   -2.376794   -0.692100
C         0.658036   -1.713724    1.441908
H         0.089501   -1.106706    2.143795
H         1.716200   -1.617076    1.678711
H         0.362886   -2.753563    1.582952
O         2.301301    0.069555   -0.230628
N        -3.222878   -0.177031   -0.097076
H        -1.724060   -0.058233    1.299999
H        -3.371543   -0.192995   -1.099462
H        -3.742559    0.608777    0.272543
