28
0 2
C         1.476355   -0.548354   -0.189586
C         0.677909   -1.543314    0.660879
C        -0.818541   -1.383427    0.741865
C        -1.403167   -0.051900    0.303582
C        -0.432938    1.113521    0.488416
N         0.840234    0.793062   -0.186917
C         2.878727   -0.411846    0.398689
H         2.837482   -0.012464    1.412506
H         3.480671    0.257140   -0.210112
H         3.358325   -1.390364    0.432192
C         1.575029   -1.020022   -1.639798
H         0.592799   -1.214900   -2.064496
H         2.164798   -1.935537   -1.690074
H         2.066467   -0.254547   -2.236902
C        -0.189145    1.311821    1.991481
H         0.145390    0.404565    2.491748
H        -1.103175    1.648324    2.480538
H         0.574366    2.076153    2.125229
C        -0.996479    2.399934   -0.094408
H        -1.075522    2.342002   -1.175589
H        -0.352881    3.238139    0.154787
H        -1.987829    2.575277    0.324131
O         1.519454    1.747790   -0.666999
O        -1.522639   -2.244945    1.191587
H         1.018922   -1.502108    1.698426
H         0.883677   -2.559431    0.326796
Cl        -1.926733   -0.268736   -1.399833
H        -2.311675    0.123585    0.872979
