16
0 1
C        -0.213753    0.101845    0.000005
C         1.244053    0.329975    0.000012
O         1.797291    1.401845    0.000009
O         1.947969   -0.815280    0.000005
O         3.339600   -0.557970   -0.000005
H         3.344533    0.426459   -0.000023
C        -0.761586   -1.175803    0.000005
C        -2.134888   -1.329588   -0.000002
C        -2.959010   -0.215498   -0.000010
C        -2.412042    1.057646   -0.000010
C        -1.040005    1.218283   -0.000003
H        -0.590529    2.201203   -0.000002
H        -4.033696   -0.340682   -0.000016
H        -3.056716    1.925864   -0.000016
H        -0.114621   -2.040788    0.000010
H        -2.564468   -2.321981   -0.000002
