32
0 2
C         0.094329    1.138920   -0.068379
C        -0.752898   -0.114511   -0.044712
N        -0.109591   -1.202111    0.012860
C         1.321030   -0.964768    0.052624
N         1.413787    0.509016    0.013299
C        -0.135402    2.047637    1.134368
H        -0.054440    1.491698    2.067640
H        -1.120058    2.512208    1.086818
H         0.620231    2.832309    1.135310
C        -0.039107    1.918412   -1.373257
H         0.082089    1.263936   -2.235836
H         0.736771    2.682197   -1.409140
H        -1.011332    2.406004   -1.437490
C         2.002817   -1.564675   -1.165806
H         1.532225   -1.206865   -2.080692
H         1.926190   -2.650218   -1.136543
H         3.052847   -1.276577   -1.174698
C         1.920307   -1.491076    1.345897
H         1.390247   -1.082013    2.205099
H         2.967683   -1.199517    1.407288
H         1.845585   -2.576779    1.374916
O         2.497510    1.150479    0.010350
C        -2.256598   -0.071017   -0.073423
C        -2.807170   -0.980349   -1.166954
H        -2.442744   -0.683731   -2.150915
H        -3.896772   -0.941071   -1.181116
H        -2.496538   -2.009116   -0.990574
C        -2.815791   -0.453401    1.297014
H        -2.557207    0.956875   -0.290988
H        -2.521546   -1.472514    1.546978
H        -3.904716   -0.397594    1.292026
H        -2.447074    0.207566    2.081776
