14
0 2
C         1.423692   -0.017468    0.000001
C         1.524539    1.364213   -0.000001
C         0.375478    2.136689   -0.000000
C        -2.268646   -0.499445    0.000007
O        -3.361830    0.108458   -0.000006
O        -2.454326   -1.736127   -0.000005
C         0.190657   -0.636647    0.000004
C        -0.868420    1.534701    0.000003
C        -0.951421    0.150493    0.000004
H         0.457470    3.214647   -0.000002
H        -1.774446    2.124904    0.000003
H         0.112078   -1.714647    0.000005
Cl         2.863400   -0.977994   -0.000001
H         2.501069    1.827131   -0.000004
