10
0 1
C        -0.140953    0.448151    0.345797
O         1.025578    0.619363   -0.372337
O         2.024391   -0.240256    0.158526
H         1.845052   -1.069400   -0.312902
C        -1.077462    1.560030   -0.033390
H        -0.633344    2.514336    0.248278
H        -2.025007    1.437428    0.485307
H        -1.257080    1.551726   -1.106706
Cl        -0.887701   -1.171057   -0.052257
H         0.072043    0.391939    1.410439
