19
0 1
C        -1.911228   -0.272727   -0.000000
C        -1.999319   -1.651889   -0.000000
C        -0.857908   -2.432709   -0.000001
C         1.891903    0.085704   -0.000000
O         2.857262   -0.635986    0.000008
O         2.025975    1.418854   -0.000006
H         2.980709    1.583281   -0.000002
C        -0.669901    0.359244   -0.000001
C         0.372583   -1.810633   -0.000002
C         0.496974   -0.425451   -0.000002
H        -0.925636   -3.511210   -0.000001
H         1.286704   -2.386722   -0.000002
O        -0.544423    1.696707    0.000000
C        -1.703991    2.499222    0.000002
H        -1.351886    3.526707    0.000003
H        -2.310669    2.325123    0.891785
H        -2.310671    2.325124   -0.891779
H        -2.976955   -2.116145    0.000000
H        -2.816785    0.312681    0.000001
