32
0 1
C         0.335236    1.285660   -0.023348
C        -1.162042    1.210370   -0.326604
C        -1.844015   -0.037285    0.217820
H        -1.300572    1.223837   -1.412121
H        -1.641632    2.108662    0.069996
C        -1.122156   -1.257990   -0.317945
C         0.376810   -1.273489   -0.017233
H        -1.259453   -1.285914   -1.403857
H        -1.576365   -2.162883    0.086938
N         0.934045    0.014948   -0.475930
C         0.947758    2.392979   -0.878928
H         0.860653    2.142929   -1.936336
H         1.999719    2.536836   -0.637544
H         0.428702    3.335261   -0.700271
C         0.587061    1.626095    1.451132
H        -0.007786    1.026646    2.134397
H         0.335634    2.672340    1.628551
H         1.638034    1.484835    1.695397
C         1.026825   -2.362867   -0.868287
H         0.932985   -2.119534   -1.926730
H         0.538094   -3.320552   -0.687016
H         2.082507   -2.471533   -0.624915
C         0.641822   -1.598051    1.458320
H         0.022418   -1.020753    2.138889
H         1.686322   -1.414980    1.702586
H         0.430346   -2.652256    1.639394
O         2.323563    0.039262   -0.158704
H         2.755825    0.039636   -1.017452
N        -3.261167   -0.133763   -0.109494
H        -1.782173   -0.036766    1.308233
H        -3.393119   -0.141092   -1.114409
H        -3.772568    0.660364    0.254308
