8
0 1
O         0.618339    0.579289   -0.393917
O         1.453074   -0.428634    0.172671
H         1.068732   -1.240197   -0.191732
C        -0.604422    0.549570    0.282975
O        -1.349781   -0.592946   -0.017130
H        -1.099543    1.469806   -0.037581
H        -0.439430    0.539965    1.359254
H        -1.676285   -0.528669   -0.920783
