24
0 2
C        -0.853784    0.579767    0.061506
C        -1.101283   -0.724762   -0.417892
C        -2.372598   -1.199357   -0.502529
C        -1.951519    1.393900    0.426320
C        -3.224914    0.934071    0.346021
C        -3.516001   -0.405090   -0.115863
H        -1.754882    2.397238    0.787243
H        -4.066696    1.549742    0.632208
O        -4.674847   -0.840165   -0.184496
H        -0.273006   -1.335762   -0.744505
H        -2.573891   -2.192039   -0.881899
N         0.402918    1.112697    0.150533
C         1.640238    0.454594    0.085270
H         0.447776    2.112417    0.255672
C         2.707587    1.099255   -0.529814
C         3.952990    0.501487   -0.570752
C         4.146106   -0.751301   -0.013242
C         3.084143   -1.391617    0.603219
C         1.839042   -0.793428    0.665200
H         1.026593   -1.282433    1.182581
H         5.118392   -1.222425   -0.053154
H         3.227497   -2.362812    1.057692
H         2.551945    2.068867   -0.985943
H         4.774581    1.014528   -1.052326
