29
0 1
C        -1.609620   -0.493778    0.243202
C        -0.528046   -1.493235    0.696130
C         0.600448   -1.519743   -0.284238
C         1.293989   -0.178907   -0.482550
C         0.402185    1.040902   -0.151057
N        -0.941474    0.570488   -0.545641
C        -2.567330   -1.197794   -0.715331
H        -2.021139   -1.651095   -1.541882
H        -3.284307   -0.484727   -1.120420
H        -3.124441   -1.977704   -0.195763
C        -2.394231    0.009023    1.454860
H        -1.766497    0.544852    2.161687
H        -2.829119   -0.846600    1.972778
H        -3.201493    0.667973    1.145726
C         0.809530    2.167526   -1.096235
H         0.613849    1.889155   -2.132171
H         1.876760    2.359108   -0.986287
H         0.270738    3.084012   -0.869192
C         0.503166    1.566600    1.281783
H         0.438448    0.788611    2.037197
H        -0.301385    2.282270    1.444057
H         1.450144    2.081149    1.427618
O        -1.826315    1.673969   -0.631614
H        -1.991900    1.772453   -1.574171
O         0.940571   -2.489897   -0.903556
H        -0.949632   -2.490349    0.795763
H        -0.122150   -1.195037    1.664041
Cl         2.821565   -0.209264    0.454031
H         1.591248   -0.136153   -1.526054
