15
0 1
C         0.479010   -0.000064    0.887380
C        -0.776543    0.000003    0.021552
C        -0.876937    1.256965   -0.827115
H        -0.842270    2.143273   -0.193917
H        -1.820604    1.262713   -1.375960
H        -0.065697    1.311603   -1.551127
C        -0.876966   -1.256857   -0.827262
H        -0.842324   -2.143241   -0.194170
H        -0.065722   -1.311429   -1.551275
H        -1.820627   -1.262516   -1.376119
O        -1.805121   -0.000040    1.014566
H        -2.660252   -0.000128    0.573966
Cl         1.993236   -0.000001   -0.059208
H         0.491026   -0.885840    1.515576
H         0.491033    0.885622    1.515703
