19
0 1
C         1.948228    0.465024    0.000000
N         2.769288   -0.496644    0.000000
O         4.081238   -0.044923    0.000000
H         4.597733   -0.856475    0.000000
C         0.502863    0.247217   -0.000000
C        -0.345212    1.344965   -0.000001
C        -0.058590   -1.029348   -0.000001
C        -1.426213   -1.187189   -0.000001
C        -2.283700   -0.087396   -0.000001
C        -1.720353    1.178186   -0.000001
H        -2.363745    2.049055   -0.000002
H         0.074400    2.343489   -0.000001
H        -1.846427   -2.185839   -0.000002
H         0.594053   -1.891042   -0.000001
C        -3.771159   -0.281583    0.000003
H        -4.093540   -0.842881    0.878574
H        -4.093536   -0.842960   -0.878519
H        -4.295347    0.672726   -0.000041
H         2.316309    1.490568   -0.000000
