18
0 1
C         0.113917    1.528753   -0.000006
C         0.547283    0.206644   -0.000002
C        -0.378952   -0.825392    0.000003
C        -1.237462    1.804585   -0.000003
C        -2.167065    0.776029    0.000002
C        -1.735138   -0.539892    0.000006
H        -1.581018    2.830335   -0.000006
H        -3.228131    0.997557    0.000004
O        -2.593844   -1.594441    0.000012
H        -3.503060   -1.280397    0.000014
H        -0.077123   -1.862520    0.000006
C         2.020408   -0.059124   -0.000003
C         2.499524   -1.486978   -0.000009
H         2.132228   -2.017796    0.879308
H         3.585473   -1.490412   -0.000022
H         2.132205   -2.017800   -0.879314
O         2.807847    0.856499   -0.000001
H         0.852306    2.316817   -0.000009
