26
0 2
C        -0.086180    0.234294    0.000005
N        -0.428812    1.458027   -0.000005
O        -1.506621    2.044257   -0.000010
C         1.390512   -0.110923    0.000001
C         1.715469   -0.933975   -1.252216
H         1.136061   -1.856137   -1.297624
H         2.771308   -1.207821   -1.253565
H         1.513205   -0.360511   -2.157389
C         1.715475   -0.933981    1.252213
H         2.771311   -1.207836    1.253550
H         1.136059   -1.856137    1.297626
H         1.513226   -0.360516    2.157390
C         2.246246    1.152100    0.000002
H         2.051758    1.763253   -0.880850
H         3.302250    0.879800   -0.000002
H         2.051764    1.763248    0.880859
C        -1.155974   -0.841022    0.000009
C        -2.010336   -0.767410    1.263087
H        -1.401836   -0.884565    2.159947
H        -2.761462   -1.558118    1.256244
H        -2.528426    0.189371    1.326630
C        -2.010318   -0.767436   -1.263084
H        -0.638275   -1.800750    0.000022
H        -2.528406    0.189345   -1.326655
H        -2.761445   -1.558142   -1.256234
H        -1.401806   -0.884611   -2.159933
