22
0 1
C        -1.250605   -1.633711   -0.000018
C        -0.374539   -0.555478   -0.000004
C        -0.854540    0.744174    0.000013
C        -2.611054   -1.399809   -0.000016
C        -3.101600   -0.104271   -0.000001
C        -2.221417    0.966899    0.000014
H        -3.303373   -2.230819   -0.000028
H        -4.170720    0.074779   -0.000001
O        -2.643868    2.259539    0.000028
H        -3.605183    2.292431    0.000046
C         1.085363   -0.845140   -0.000012
O         1.553065   -1.953124   -0.000023
O         1.831993    0.263551   -0.000004
H        -0.179261    1.586083    0.000024
C         3.253334    0.070808   -0.000008
C         3.896641    1.431998    0.000022
H         3.526561   -0.512265   -0.879585
H         3.526560   -0.512304    0.879544
H         3.606497    1.999075   -0.884055
H         4.981726    1.327287    0.000020
H         3.606496    1.999036    0.884123
H        -0.848314   -2.635848   -0.000032
