31
0 1
C        -1.188201   -0.152977   -0.304527
C        -0.704455    1.257722    0.120584
C         0.837292    1.220542    0.072724
C         1.173148   -0.269921    0.264753
N         0.092548   -0.859304   -0.537878
C        -2.086953   -0.820747    0.731998
H        -1.594843   -0.960386    1.688485
H        -2.398292   -1.795372    0.362949
H        -2.969995   -0.206885    0.897735
C        -1.936207   -0.091119   -1.632606
H        -1.340738    0.417358   -2.390393
H        -2.885257    0.435303   -1.520414
H        -2.148988   -1.100494   -1.986884
C         2.508761   -0.705654   -0.317949
H         2.545997   -0.541192   -1.392961
H         2.660966   -1.768557   -0.129084
H         3.332245   -0.164291    0.149740
C         1.136487   -0.648833    1.748828
H         0.289161   -0.204121    2.263294
H         2.045945   -0.294429    2.236313
H         1.091679   -1.731216    1.858251
O        -0.023616   -2.251200   -0.318006
H         0.182969   -2.638655   -1.173128
C         1.367455    1.836827   -1.214811
H         1.227302    1.789705    0.919638
H         1.034452    1.278020   -2.089148
H         2.456061    1.863812   -1.228783
H         1.010337    2.862989   -1.315839
O        -1.207031    1.571906    1.411303
H        -1.080548    1.999163   -0.590295
H        -0.905070    2.453688    1.645340
