22
0 2
C        -0.000000    0.000000    0.349868
C        -0.646956    1.026232    1.073122
C        -0.659392    1.036911    2.432801
C         0.646956   -1.026232    1.073122
C         0.659392   -1.036911    2.432801
C        -0.000000    0.000000    3.195005
H         1.169143   -1.800805    0.528216
H         1.167425   -1.810261    2.992732
O        -0.000000    0.000000    4.433990
H        -1.169143    1.800805    0.528216
H        -1.167425    1.810261    2.992732
C         0.000000   -0.000000   -1.116252
C         0.004679   -1.197526   -1.833566
C         0.000000   -1.197033   -3.214943
C         0.000000   -0.000000   -3.912062
C        -0.000000    1.197033   -3.214943
C        -0.004679    1.197526   -1.833566
H         0.018478    2.139505   -1.303323
H        -0.018478   -2.139505   -1.303323
H        -0.009226   -2.136663   -3.750894
H         0.000000   -0.000000   -4.993689
H         0.009226    2.136663   -3.750894
