29
0 2
C        -1.347481   -0.398891    0.005184
C        -0.311265   -1.509199    0.187396
C         0.987678   -0.958353   -0.403505
C         0.964823    0.533602   -0.028325
N        -0.486328    0.800636   -0.036052
C        -2.098543   -0.509604   -1.318538
H        -1.410943   -0.654066   -2.152176
H        -2.665288    0.403311   -1.497380
H        -2.790968   -1.351598   -1.292644
C        -2.325557   -0.289663    1.163468
H        -1.795786   -0.179000    2.109606
H        -2.944902   -1.185648    1.215665
H        -2.971133    0.576713    1.030855
C         1.505655    0.832156    1.368415
H         1.077069    0.168042    2.119049
H         1.247566    1.856165    1.634956
H         2.589974    0.729543    1.397670
C         1.650362    1.415991   -1.056542
H         1.238938    1.242890   -2.050860
H         2.720128    1.206130   -1.080309
H         1.506707    2.465734   -0.806899
O        -0.957925    1.968102    0.028745
H        -0.619850   -2.437314   -0.293045
H        -0.174300   -1.721173    1.249995
C         2.226650   -1.726964    0.012643
H         0.909194   -1.004774   -1.493353
H         2.331855   -1.761424    1.097156
H         3.132993   -1.281942   -0.400280
H         2.172506   -2.755299   -0.346780
