14
0 1
C        -1.379811   -0.019563    0.000874
C        -0.824782    1.249340    0.005353
C         0.546492    1.395273   -0.005996
C        -0.571499   -1.137079   -0.017109
C         0.808043   -0.999766   -0.029857
C         1.355567    0.268156   -0.019150
H        -1.466046    2.118812    0.017567
H         1.000843    2.376252   -0.004245
H        -1.016034   -2.121936   -0.025165
H         1.446438   -1.867429   -0.051143
O         2.700530    0.534439   -0.033504
O         3.461763   -0.664787   -0.042326
H         3.945234   -0.578496    0.790993
Cl        -3.106638   -0.201328    0.016114
