13
0 2
C         1.700306   -0.926060   -0.000001
C         0.415215   -1.442577   -0.000000
C        -0.674326   -0.595105   -0.000001
C         1.923048    0.462829    0.000002
C         0.870476    1.324027    0.000001
C        -0.494454    0.854445   -0.000009
H         2.937526    0.837869    0.000005
H         1.004259    2.397151    0.000004
O        -1.462727    1.622216    0.000003
H         2.543422   -1.603363    0.000001
H         0.261132   -2.515717    0.000002
O        -1.939749   -1.021731    0.000001
H        -1.968129   -1.985177    0.000005
