13
0 1
C        -0.963518   -1.371155   -0.000000
C        -1.527057   -0.106510   -0.000000
C        -0.749112    1.032192    0.000000
C         0.413061   -1.485271   -0.000000
C         1.202995   -0.353159    0.000000
C         0.632843    0.915880    0.000000
O         1.365882    2.044712    0.000000
H         2.305242    1.817811    0.000001
H        -1.193497    2.016331    0.000000
H        -1.591519   -2.248983   -0.000000
Cl        -3.252373    0.054087   -0.000000
Cl         2.935654   -0.482071    0.000000
H         0.881673   -2.458984   -0.000000
