9
0 2
C        -0.614390    0.093552    0.136071
O        -1.119338    1.446383    0.010470
O        -1.190806    1.826935   -1.231589
C         0.744545   -0.009708   -0.578321
Cl        -0.516807   -0.161751    1.859201
Cl         1.424982   -1.626519   -0.439159
H         0.572708    0.195018   -1.628660
Cl         1.867036    1.211004    0.024540
Cl        -1.767709   -1.004182   -0.618046
