13
0 1
C         1.779544   -1.315131   -0.000001
C         0.403405   -1.460759   -0.000001
C        -0.417176   -0.349245   -0.000000
C         2.331131   -0.046457   -0.000000
C         1.511827    1.067502    0.000000
C         0.131446    0.929392    0.000000
H         3.404903    0.082093   -0.000001
H         1.942053    2.062378    0.000000
O        -0.707384    1.991056    0.000001
H        -0.198504    2.807497    0.000003
H         2.413496   -2.190444   -0.000001
H        -0.050144   -2.441811   -0.000001
Cl        -2.134929   -0.541174    0.000000
