19
0 1
C        -0.039071    2.108551   -0.000012
C        -1.223508    1.391460   -0.000009
C        -1.226179    0.006252    0.000000
C         1.166151    1.432775   -0.000009
C         1.208895    0.045672   -0.000002
C         0.002527   -0.648114    0.000004
O        -0.035292   -2.013312    0.000011
H         0.857679   -2.368734    0.000051
C         2.511504   -0.700016    0.000000
H         2.617837   -1.336598    0.883390
H         3.350733   -0.007815   -0.000024
H         2.617816   -1.336637   -0.883363
H        -2.171597    1.914785   -0.000012
C        -2.494577   -0.790216    0.000006
H         2.097451    1.985449   -0.000013
H        -0.056903    3.189749   -0.000019
H        -3.362033   -0.132498   -0.000012
H        -2.551556   -1.439678    0.874712
H        -2.551544   -1.439711   -0.874676
