20
0 1
C        -1.298111    0.015256    0.000000
C        -0.631900   -1.209404   -0.000000
C         0.750432   -1.201784   -0.000001
C         1.454044   -0.004550   -0.000000
C         0.762801    1.203178    0.000000
C        -0.617064    1.232329    0.000000
O        -2.653527    0.084197    0.000001
H        -3.036622   -0.798085   -0.000002
H         1.291697   -2.138191   -0.000001
H         1.316382    2.132374    0.000000
C        -1.385811    2.516881    0.000001
H        -0.710625    3.370128   -0.000001
H        -2.033141    2.585204    0.875036
H        -2.033144    2.585203   -0.875031
C        -1.407862   -2.493411    0.000000
H        -2.045600   -2.582055    0.883969
H        -0.736946   -3.349226    0.000000
H        -2.045600   -2.582056   -0.883969
C         2.882834   -0.014238   -0.000001
N         4.029377   -0.023201   -0.000001
