8
0 1
O         1.111106    0.380392   -0.451340
O         1.495172   -0.797669    0.252773
H         1.185553   -1.497297   -0.341515
C        -0.003841    0.914993    0.215241
C        -1.201164    0.082202    0.045393
H        -0.168573    1.891518   -0.240753
H         0.203295    1.043406    1.279042
N        -2.120067   -0.583226   -0.096005
