19
0 2
C        -0.830290   -1.567689    0.000000
C        -2.191619   -1.643538    0.000000
C        -2.974853   -0.473988    0.000000
C        -2.378691    0.751010    0.000000
C        -0.971438    0.871311    0.000000
C        -0.190196   -0.309100   -0.000000
C         1.215976   -0.152426   -0.000000
C         1.827993    1.061707   -0.000000
C         1.031698    2.219609   -0.000000
C        -0.328564    2.129819    0.000000
H        -0.231436   -2.466368   -0.000000
H        -2.975937    1.653841    0.000000
H        -2.676193   -2.610587    0.000000
H        -4.053671   -0.552950    0.000001
H         2.905062    1.116852   -0.000001
H         1.513629    3.187596   -0.000000
H        -0.937395    3.024519    0.000000
O         1.925745   -1.350370   -0.000001
O         3.223735   -1.233779    0.000000
