30
0 1
C        -1.437651   -0.873056   -0.033061
C        -0.008757   -1.320742    0.005661
C         0.842966   -0.303115   -0.034651
C         0.110604    1.019838   -0.116964
N        -1.246374    0.527025   -0.451930
C        -2.259537   -1.605597   -1.087410
H        -1.769962   -1.541847   -2.057436
H        -3.241473   -1.140003   -1.170196
H        -2.396364   -2.655664   -0.823042
C        -2.091724   -1.048832    1.343028
H        -1.547053   -0.524039    2.127041
H        -2.114096   -2.105573    1.608776
H        -3.121002   -0.691101    1.323700
C         0.196870    1.775972    1.212396
H        -0.174733    1.184306    2.049602
H        -0.364005    2.709360    1.159413
H         1.237275    2.020548    1.414219
C         0.588962    1.918210   -1.250562
H         0.609936    1.362773   -2.187063
H         1.581376    2.313209   -1.044809
H        -0.110517    2.746421   -1.364882
O        -2.284163    1.385661   -0.088514
H        -2.273362    1.483503    0.876341
H         0.256049   -2.366516    0.080869
C         2.314611   -0.411550    0.053794
C         2.933976   -1.784098   -0.011896
H         4.013758   -1.684041    0.050651
H         2.663831   -2.284603   -0.942150
H         2.580487   -2.405728    0.811645
O         3.003233    0.575294    0.184614
