16
0 2
C        -1.535970   -0.069030   -0.026593
O        -1.465642   -1.113837   -0.700081
O        -2.518864   -0.112580    0.751747
C        -0.608676    1.091475   -0.141011
C         0.805715    0.691138   -0.544911
H        -0.625545    1.627396    0.809800
H        -1.050277    1.757727   -0.887220
C         1.543302   -0.082817    0.538404
H         1.362352    1.597925   -0.790775
H         0.764350    0.095796   -1.459495
C         2.949416   -0.476783    0.116842
H         0.975298   -0.980725    0.794521
H         1.587141    0.524859    1.446896
H         2.927928   -1.114409   -0.768499
H         3.462161   -1.024016    0.907672
H         3.549918    0.402890   -0.122614
