18
0 1
C         0.858526   -1.106058   -0.006865
C         1.892426   -0.177162    0.013302
C         1.618062    1.182145    0.002296
C         0.309563    1.641610   -0.022256
C        -0.704043    0.708246   -0.037368
C        -0.442900   -0.648758   -0.030583
C        -1.758200   -1.372552   -0.111534
C        -2.740606   -0.229093    0.183394
H        -1.854120   -2.186169    0.606177
H        -1.909844   -1.788497   -1.110393
O        -2.037462    0.996721   -0.079545
H        -3.037912   -0.230641    1.235120
H        -3.632544   -0.242224   -0.438097
H         1.076623   -2.168367   -0.004228
H         2.446807    1.876121    0.019260
H         0.088712    2.699599   -0.027817
O         3.206632   -0.551648    0.045930
H         3.271955   -1.510675    0.046589
