7
0 2
O        -0.538843   -0.000002    1.353470
O        -1.832183   -0.000002    1.233537
C         0.130191    0.000001    0.072211
C         1.552616    0.000022    0.397646
N         2.667091    0.000041    0.646665
Cl        -0.288161   -1.453571   -0.824750
Cl        -0.288207    1.453548   -0.824771
