19
0 1
C        -0.395053    1.548353   -0.036297
C         0.009782    0.224487   -0.087329
C        -0.892977   -0.820808   -0.070068
C        -1.748773    1.818344    0.042293
C        -2.672112    0.787382    0.069601
C        -2.246336   -0.532148    0.010296
H        -2.093360    2.842883    0.076209
H        -3.731449    1.008508    0.128624
O        -3.107147   -1.579758    0.023722
H        -4.016008   -1.265542    0.055052
H        -0.559652   -1.846160   -0.142610
S         1.741857   -0.147243   -0.168864
O         1.894956   -1.441556   -0.769138
O         2.416969    0.996176   -0.713245
C         2.212021   -0.287260    1.533508
H         1.650765   -1.095122    1.995590
H         2.027940    0.658754    2.035804
H         3.276284   -0.516265    1.532808
H         0.338245    2.339840   -0.082393
