14
0 2
C         1.826616   -1.203758    0.000000
C         2.514484    0.000000    0.000001
C         1.826615    1.203758    0.000000
C        -1.707538   -0.000001   -0.000003
O        -2.423165    1.027049    0.000002
O        -2.423166   -1.027049    0.000002
C         0.445040   -1.206528   -0.000001
C         0.445040    1.206527   -0.000001
C        -0.241091   -0.000000   -0.000002
H         3.596451    0.000000    0.000002
H         2.369661    2.138785    0.000001
H        -0.110062    2.135076   -0.000002
H         2.369662   -2.138785    0.000001
H        -0.110061   -2.135076   -0.000002
