27
0 1
C        -0.938886    0.501828   -0.085045
C        -0.897331   -1.007033    0.051260
N         0.264099   -1.504553    0.080168
C         1.260047   -0.448336   -0.040040
N         0.462222    0.725021   -0.476854
C        -1.342731    1.156448    1.238340
H        -0.717443    0.826418    2.064789
H        -2.378416    0.910297    1.471977
H        -1.256732    2.238062    1.160169
C        -1.862055    0.978542   -1.199859
H        -1.620635    0.479759   -2.137563
H        -1.734961    2.052529   -1.341678
H        -2.909692    0.795337   -0.958310
C         2.260698   -0.803288   -1.126166
H         1.739817   -0.991023   -2.063350
H         2.825260   -1.693146   -0.850034
H         2.958825    0.021885   -1.272568
C         1.967403   -0.267847    1.297934
H         1.269199    0.000473    2.087474
H         2.724159    0.510360    1.230360
H         2.445152   -1.207811    1.569476
O         0.973999    1.942636    0.023266
H         1.216797    2.431803   -0.767946
C        -2.129626   -1.833262    0.166357
H        -2.733588   -1.752703   -0.739031
H        -2.749810   -1.494541    0.998165
H        -1.859291   -2.874376    0.322069
