25
0 1
N         2.065428    0.331874    0.109075
C         1.531186   -0.886064   -0.010937
C         1.256100    1.378245    0.080909
N        -0.071691    1.311519   -0.009917
C        -0.621840    0.114937   -0.092911
C         0.164721   -1.035563   -0.133790
O        -0.381688   -2.267274   -0.315490
H        -1.270008   -2.133614   -0.675734
N        -2.014623   -0.023126   -0.193079
C         1.864314    2.742818    0.157833
H         2.935841    2.667462    0.319107
H         1.409651    3.315286    0.966015
H         1.678301    3.288493   -0.768356
C         2.438709   -2.070947   -0.029823
H         3.471841   -1.735609   -0.014274
H         2.260298   -2.678226   -0.917925
H         2.254922   -2.713822    0.832650
C        -2.639496   -0.618098    0.985568
H        -2.085443   -1.494231    1.314535
H        -3.656716   -0.922433    0.740407
H        -2.681487    0.095330    1.817748
C        -2.723889    1.161161   -0.644353
H        -2.730265    1.955722    0.108441
H        -3.751389    0.879684   -0.873525
H        -2.254676    1.553326   -1.542693
