16
0 2
C         0.087944    1.595996    0.000002
C         0.760714    0.348943    0.000001
C         0.052815   -0.814981    0.000001
C        -1.300095    1.654735   -0.000001
C        -2.043268    0.503427   -0.000001
C        -1.391897   -0.788656    0.000006
H        -1.787340    2.620527   -0.000003
H        -3.124069    0.509984   -0.000005
O        -2.055933   -1.835671   -0.000005
H         0.516237   -1.789155   -0.000001
O         2.106747    0.443796    0.000000
C         2.853500   -0.755729    0.000000
H         3.898803   -0.461439    0.000000
H         2.641160   -1.350909   -0.890992
H         2.641160   -1.350909    0.890993
H         0.689260    2.494491    0.000001
