33
0 2
C         0.798419    1.107632   -0.000002
C        -0.051804   -0.155943   -0.000003
N         0.610627   -1.239628   -0.000003
C         2.035431   -1.002072   -0.000000
N         2.122400    0.467283    0.000006
C         0.666790    1.954943    1.263616
H         0.677862    1.329716    2.155748
H        -0.247451    2.543237    1.266520
H         1.518009    2.633540    1.307517
C         0.666804    1.954937   -1.263625
H         0.677870    1.329704   -2.155754
H         1.518033    2.633522   -1.307529
H        -0.247428    2.543244   -1.266535
C         2.677880   -1.566453   -1.257390
H         2.177937   -1.182701   -2.145675
H         2.603282   -2.652472   -1.256625
H         3.726820   -1.276222   -1.290631
C         2.677878   -1.566465    1.257385
H         2.177934   -1.182720    2.145673
H         3.726818   -1.276234    1.290630
H         2.603279   -2.652483    1.256610
O         3.203485    1.111221    0.000009
C        -1.529656   -0.180882    0.000000
C        -2.302293    0.974694    0.000000
C        -3.685324    0.901027    0.000001
C        -4.315332   -0.329154    0.000002
C        -3.554431   -1.489153    0.000004
C        -2.177213   -1.415941    0.000003
H        -1.573520   -2.311747    0.000003
H        -5.395686   -0.386836    0.000002
H        -4.040640   -2.455622    0.000005
H        -1.835451    1.946319   -0.000001
H        -4.269619    1.811381   -0.000000
