12
0 2
C         0.000000    0.000000    0.894635
C         0.000000    1.223484    0.211155
C         0.000000    1.232006   -1.150876
C        -0.000000   -1.223484    0.211155
C        -0.000000   -1.232006   -1.150876
C         0.000000    0.000000   -1.907982
H         0.000000   -2.143667    0.778244
H         0.000000   -2.155780   -1.712764
O         0.000000    0.000000   -3.147720
H         0.000000    2.143667    0.778244
H         0.000000    2.155780   -1.712764
Cl         0.000000    0.000000    2.612208
