7
0 2
O         1.151089    0.239664   -0.448437
O         1.575374   -0.801868    0.210487
C         0.027665    0.851417    0.213709
C        -1.185326    0.061337    0.040812
H        -0.088278    1.827225   -0.254585
H         0.264093    0.963737    1.270290
N        -2.148794   -0.538550   -0.091320
