32
0 2
C        -1.245187    0.345753    0.050139
C        -0.694680   -1.064888    0.324005
C         0.694680   -1.064888   -0.324005
C         1.245187    0.345753   -0.050139
N         0.000000    1.133344   -0.000001
C        -1.960512    0.489107   -1.291468
H        -1.373591    0.071036   -2.109124
H        -2.118005    1.547490   -1.494372
H        -2.929847   -0.007990   -1.273360
C        -2.131564    0.861064    1.171909
H        -1.612553    0.812640    2.129104
H        -3.040826    0.262742    1.238395
H        -2.408876    1.897255    0.986978
C         1.960511    0.489107    1.291469
H         1.373590    0.071036    2.109124
H         2.118004    1.547490    1.494372
H         2.929846   -0.007989    1.273361
C         2.131564    0.861064   -1.171908
H         1.612554    0.812639   -2.129104
H         3.040827    0.262742   -1.238394
H         2.408876    1.897255   -0.986977
O         0.000000    2.394558   -0.000000
C         1.590311   -2.207735    0.116193
H         0.553777   -1.143964   -1.406805
H         1.695611   -2.239877    1.200996
H         2.588099   -2.119114   -0.315447
H         1.182093   -3.164962   -0.206914
C        -1.590311   -2.207735   -0.116193
H        -0.553777   -1.143964    1.406805
H        -1.695611   -2.239877   -1.200996
H        -2.588099   -2.119114    0.315447
H        -1.182093   -3.164962    0.206914
