18
0 1
C        -1.987896   -1.376198    0.000013
C        -0.612089   -1.434431    0.000009
C         0.181441   -0.287486   -0.000001
C        -2.610813   -0.137335    0.000007
C        -1.854791    1.015309   -0.000004
C        -0.465962    0.950833   -0.000008
H        -3.690505   -0.066794    0.000010
H        -2.338544    1.985623   -0.000011
O         0.263287    2.097148   -0.000021
H        -0.330774    2.854048   -0.000027
C         1.666820   -0.502674   -0.000007
C         2.617169    0.660526    0.000041
H         2.453478    1.292466   -0.871986
H         3.630700    0.269301    0.000069
H         2.453420    1.292447    0.872071
O         2.097609   -1.633410   -0.000037
H        -2.573254   -2.284800    0.000022
H        -0.094962   -2.383464    0.000011
