19
0 1
C        -1.373167   -1.210111    0.000006
C         0.002499   -1.132622    0.000007
C        -2.122633   -0.044616   -0.000000
C        -1.504814    1.188287   -0.000006
C        -0.121494    1.253277   -0.000005
C         0.654354    0.100519    0.000001
H         0.593166   -2.036473    0.000012
H        -1.871198   -2.169086    0.000011
H        -2.098610    2.090893   -0.000011
H         0.346679    2.226632   -0.000010
C         2.134281    0.182893    0.000001
N         2.757279   -0.925369   -0.000007
O         4.137224   -0.790101   -0.000007
H         4.441526   -1.702301   -0.000013
C         2.801533    1.522165    0.000011
H         2.503130    2.093901    0.879552
H         2.503147    2.093905   -0.879535
H         3.879921    1.417244    0.000021
Cl        -3.854109   -0.139710   -0.000001
