12
0 2
C        -0.010646    0.054758    0.065409
O        -0.014773    1.267518   -0.661345
H         0.570714    1.881647   -0.205589
O         0.166571    0.229616    1.384726
C        -1.351363   -0.629444   -0.207048
H        -2.155336   -0.012146    0.187594
H        -1.376754   -1.609260    0.262983
H        -1.480573   -0.728527   -1.283036
C         1.174437   -0.829588   -0.393707
H         2.116042   -0.335376   -0.161196
H         1.092840   -0.948570   -1.472198
H         1.144114   -1.799187    0.096472
