23
0 2
C        -1.514658   -0.929701    0.054966
C        -0.151107   -1.131801   -0.031661
C         0.708387   -0.058417   -0.148714
C         0.147798    1.263600   -0.184096
C        -1.188635    1.495617   -0.103537
C        -2.099609    0.405338    0.022825
O        -3.335514    0.492155    0.104575
H         0.224816   -2.143890   -0.007995
C         2.205639   -0.215612   -0.201243
C         2.660531   -1.584798   -0.687493
H         2.414756   -2.371028    0.027889
H         3.743414   -1.589057   -0.811115
H         2.210202   -1.843748   -1.645873
C         2.815146    0.101460    1.169093
H         2.577191    0.533918   -0.902676
H         3.903321    0.047204    1.119386
H         2.473025   -0.619326    1.913723
H         2.539827    1.099585    1.504539
O        -2.379417   -1.926074    0.170135
H        -3.256188   -1.486537    0.207697
O         1.049196    2.269528   -0.309165
H         0.590379    3.115489   -0.335391
H        -1.595821    2.498405   -0.135386
