11
0 2
O         1.457802   -0.202841    0.487676
O         1.953451    0.346012   -0.588287
C         0.270625   -0.951030    0.193752
C        -0.972277   -0.094069   -0.009718
H         0.113276   -1.598299    1.055941
H         0.443113   -1.553668   -0.695842
O        -1.989258   -0.661890   -0.303708
C        -0.870885    1.386397    0.181604
H        -0.199527    1.811704   -0.565896
H        -0.438131    1.615683    1.156749
H        -1.859463    1.826546    0.089775
