24
0 2
N        -2.103157    0.228466   -0.040003
C        -1.517849   -0.941681   -0.013746
C        -1.317024    1.322694   -0.014417
N        -0.001429    1.328986    0.001793
C         0.658240    0.164278    0.002552
C        -0.081428   -1.094748    0.040819
O         0.445978   -2.218379    0.134408
N         1.998844    0.204712   -0.016579
C        -2.024497    2.636273   -0.010181
H        -2.667415    2.712533   -0.887875
H        -1.313689    3.457254   -0.002080
H        -2.674761    2.702567    0.863176
C        -2.349392   -2.175433   -0.019073
H        -3.399950   -1.907937   -0.086569
H        -2.169629   -2.756324    0.886687
H        -2.070058   -2.820722   -0.852766
C         2.850785   -0.968468   -0.143699
H         2.434726   -1.682685   -0.843944
H         2.976787   -1.476779    0.812701
H         3.822542   -0.630319   -0.498203
C         2.706798    1.467786    0.087505
H         2.011311    2.260250    0.331652
H         3.200692    1.703306   -0.857850
H         3.468026    1.386527    0.864768
