11
0 1
C         0.574766    0.151758    0.000001
O         0.552732    1.343301   -0.000003
O         1.759060   -0.502060   -0.000002
H         1.623833   -1.456382    0.000000
C        -0.648292   -0.736709    0.000004
C        -1.946524    0.045892    0.000000
H        -0.587249   -1.390942    0.874870
H        -0.587248   -1.390947   -0.874860
H        -2.011547    0.686773    0.877328
H        -2.800276   -0.630849    0.000001
H        -2.011545    0.686769   -0.877330
