20
0 2
O        -0.324910   -1.307911    1.146024
C         0.109952   -0.567727    0.075427
C        -1.076652   -0.092497   -0.778538
C         0.853301    0.612409    0.773925
C         1.086790   -1.396781   -0.758683
H         0.582709   -2.286192   -1.136540
H         1.930315   -1.714454   -0.147368
H         1.457389   -0.832191   -1.613460
C        -2.094686    0.755241   -0.036158
H        -1.563174   -0.991343   -1.164729
H        -0.694315    0.442875   -1.650021
H        -2.412442    0.256921    0.879175
H        -2.977407    0.923998   -0.652854
H        -1.693868    1.732978    0.233612
C         1.381073    1.664152   -0.188506
H         1.671754    0.180963    1.349796
H         0.169894    1.069411    1.488395
H         2.082898    1.244483   -0.908256
H         1.908469    2.436921    0.371241
H         0.578390    2.150136   -0.741987
