16
0 1
C         0.201139    1.489153    0.099925
C         0.574090    0.155602   -0.002996
C        -0.392353   -0.835621   -0.083223
C        -1.139114    1.818035    0.143445
C        -2.110474    0.833634    0.070616
C        -1.735353   -0.494982   -0.049235
H        -1.437985    2.853587    0.233049
H        -3.160956    1.098127    0.100629
O        -2.634527   -1.507409   -0.143183
H        -3.531253   -1.159005   -0.131577
H         0.970733    2.245395    0.142898
C         2.036730   -0.154209   -0.045844
O         2.865373    0.639071   -0.377676
O         2.400083   -1.399413    0.320736
H         1.647948   -1.885062    0.677175
H        -0.143906   -1.880705   -0.217321
