21
0 1
C        -2.852563   -0.358525   -0.192031
C        -2.387882    1.061381    0.212384
C        -0.907444    0.921839    0.577280
H        -2.975904    1.473674    1.031413
H        -2.497655    1.746371   -0.629053
C         2.076594    0.067760   -0.112766
O         2.069806    1.074220   -0.764729
O         3.196312   -0.392181    0.478809
H         3.908727    0.224923    0.255993
C        -1.588999   -1.233640   -0.172246
H        -3.296340   -0.345558   -1.187442
H        -3.614320   -0.746560    0.483174
C        -0.426495   -0.247452   -0.278968
H        -1.579967   -1.984875   -0.962695
H        -1.515071   -1.768510    0.779055
H        -0.801280    0.654427    1.633858
H        -0.336349    1.832821    0.407994
C         0.905334   -0.838602    0.134567
H        -0.344815    0.098487   -1.313351
H         1.109111   -1.763867   -0.412711
H         0.903643   -1.114215    1.191802
