16
0 2
C         0.854278    0.278327   -0.000000
C        -0.026647    1.380133    0.000000
C        -1.368759    1.187041    0.000000
C         0.352296   -1.031262    0.000000
C        -0.998354   -1.238777   -0.000000
C        -1.936385   -0.143456   -0.000004
H         1.025238   -1.875650    0.000001
H        -1.412482   -2.237769    0.000001
O        -3.163414   -0.333879    0.000002
H         0.407081    2.371136    0.000001
H        -2.061393    2.017497    0.000001
O         2.158601    0.585211    0.000000
C         3.115890   -0.457955    0.000001
H         4.086774    0.027935    0.000001
H         3.019685   -1.079058   -0.892353
H         3.019684   -1.079058    0.892354
