16
0 1
C        -0.679474   -0.022573   -0.011212
C         0.011557    1.179824   -0.124651
C         1.389930    1.211059   -0.119756
C         0.047002   -1.201998    0.093203
C         1.424969   -1.183567    0.109007
C         2.100774    0.025763    0.003802
H        -0.494018   -2.135171    0.161580
H         1.981695   -2.108755    0.199529
O         3.450885    0.106790    0.010129
H         3.838302   -0.770678    0.090255
C        -2.164064   -0.125436   -0.025783
O        -2.751695   -1.143005   -0.247392
O        -2.856435    1.004781    0.231652
H        -2.268574    1.710210    0.521641
H         1.932213    2.140573   -0.218701
H        -0.515821    2.116854   -0.257069
