11
0 2
C         1.509774   -0.477110    0.107028
C         0.566562    0.656298   -0.260296
H         1.627368   -0.555563    1.189945
H         2.498794   -0.326560   -0.324992
H         1.123013   -1.428885   -0.256869
C        -0.840731    0.437149    0.269053
H         0.510582    0.763044   -1.346128
H         0.938875    1.607456    0.129990
O        -1.473238   -0.674791   -0.194579
H        -1.491783    1.310927    0.098346
H        -0.834572    0.329883    1.371629
