15
0 2
C        -1.890430   -1.400292    0.000001
C        -0.492960   -1.428838    0.000004
C         0.236109   -0.272232    0.000011
C        -2.586280   -0.182832   -0.000002
C        -1.899476    0.993273   -0.000004
C        -0.456287    1.006066   -0.000004
H        -3.667860   -0.184169   -0.000006
H        -2.392910    1.955294   -0.000008
O         0.161138    2.089646    0.000003
H         0.042671   -2.368231    0.000009
H        -2.440698   -2.331325    0.000007
C         1.737971   -0.373936   -0.000010
O         2.287304   -1.439984   -0.000004
O         2.402555    0.770610    0.000003
H         1.758945    1.519010    0.000015
