19
0 1
C        -1.460029   -0.019325   -0.064269
C        -0.895204   -1.276392   -0.010149
C         0.466177   -1.397631   -0.220140
C        -0.710973    1.112937   -0.323455
C         0.644552    0.971635   -0.539718
C         1.244221   -0.282135   -0.489868
H        -1.516673   -2.132619    0.201813
H         0.929846   -2.373816   -0.165559
H        -1.195652    2.076403   -0.358057
H         1.251125    1.843595   -0.746397
C         2.722545   -0.416015   -0.734665
O         3.489828    0.528579   -0.018026
H         2.962501   -0.196580   -1.777617
H         3.065985   -1.425832   -0.503017
O         3.422661    0.167863    1.362010
H         2.798412    0.819051    1.712018
N        -2.905366    0.121500    0.164390
O        -3.541271   -0.887341    0.381081
O        -3.374434    1.238506    0.122393
