17
0 2
C        -1.843292    0.962507   -0.000003
C        -2.562090   -0.219593   -0.000001
C        -1.906549   -1.439615    0.000002
C         1.655874   -0.390281    0.000003
O         2.273029   -1.480858   -0.000006
O         2.477514    0.556623    0.000009
C        -0.454706    0.970457   -0.000002
C        -0.528058   -1.458688    0.000002
C         0.193966   -0.269921    0.000001
H        -2.465762   -2.364711    0.000003
H         0.012316   -2.395927    0.000004
C         0.283247    2.276120   -0.000004
H        -3.643696   -0.186615   -0.000001
H        -2.370356    1.907734   -0.000006
H        -0.420948    3.106001   -0.000017
H         0.926889    2.370740   -0.874410
H         0.926870    2.370752    0.874415
