21
0 1
C        -1.289829   -0.701548    0.006615
C        -2.202625    0.352698    0.000415
C        -1.760494    1.680041   -0.002009
C        -0.414829    1.985509    0.000984
C         0.487238    0.939431    0.001799
C         0.045237   -0.369415    0.005024
H        -1.592020   -1.737295    0.009067
H        -2.510257    2.458797   -0.007307
H        -0.074451    3.011770   -0.000593
C         1.227297   -1.278584    0.013486
N         2.318577   -0.411246    0.069068
C         1.968758    0.948579    0.008469
O         1.273312   -2.473920   -0.009625
O         2.741729    1.860932   -0.014190
O         3.593017   -0.839731   -0.143255
H         4.005453   -0.922357    0.726696
O        -3.538206    0.186874   -0.004123
C        -4.058300   -1.128348   -0.005465
H        -5.138950   -1.023291   -0.011316
H        -3.751481   -1.675240    0.888683
H        -3.741853   -1.677084   -0.895068
