13
0 2
C         2.185523    0.284499    0.000001
C         1.733131   -1.025520    0.000001
C         0.376394   -1.291504    0.000000
C         1.276995    1.331194    0.000000
C        -0.084969    1.085358   -0.000000
C        -0.505336   -0.228416   -0.000000
H         2.438743   -1.844986    0.000001
H        -0.007153   -2.302358    0.000000
H         1.630510    2.353378    0.000000
H        -0.810895    1.882909   -0.000001
O        -1.853375   -0.591684   -0.000001
O        -2.695219    0.402588   -0.000000
H         3.247111    0.490157    0.000001
