25
0 1
C         0.347670    0.032903    0.000000
C        -0.385764    1.213223   -0.000017
C        -1.770190    1.216709   -0.000019
C        -0.375187   -1.156165    0.000014
C        -1.756787   -1.172729    0.000012
C        -2.462491    0.020542   -0.000005
H         0.146411   -2.104057    0.000028
H        -2.288224   -2.117797    0.000024
O        -3.823621    0.068433   -0.000008
H        -4.181046   -0.824391   -0.000001
H        -2.324659    2.145105   -0.000033
H         0.121356    2.166586   -0.000028
C         1.874539   -0.001555    0.000004
C         2.482244    1.399580   -0.000011
H         2.189616    1.967110   -0.884094
H         3.570210    1.325552   -0.000009
H         2.189614    1.967130    0.884058
C         2.370270   -0.737703    1.250596
H         2.034531   -0.231522    2.156440
H         3.461195   -0.772914    1.263414
H         2.003372   -1.763084    1.286099
C         2.370276   -0.737732   -1.250570
H         2.034539   -0.231572   -2.156426
H         2.003379   -1.763114   -1.286050
H         3.461200   -0.772942   -1.263382
