24
0 2
C        -1.257514    0.171723    0.000072
C        -0.646077   -1.141830   -0.000064
C         0.731286   -1.297782   -0.000189
C         1.552728   -0.185408   -0.000160
C         1.026376    1.119908   -0.000001
C        -0.325039    1.299629    0.000117
O        -2.485137    0.356303    0.000129
H         1.121599   -2.302812   -0.000295
O         2.896182   -0.246832   -0.000263
C         3.521042   -1.514945   -0.000489
H         4.589857   -1.322432   -0.000581
H         3.253449   -2.085470   -0.892055
H         3.253644   -2.085694    0.890992
O        -0.936097    2.486853    0.000266
O        -1.341182   -2.280886   -0.000122
C        -2.767154   -2.338840    0.000325
H        -3.180632   -1.860851    0.884203
H        -2.994660   -3.402075    0.000392
H        -3.181190   -1.860834   -0.883279
C        -0.137875    3.650070    0.000313
H         0.492657    3.695237    0.891595
H        -0.827917    4.488586    0.000440
H         0.492525    3.695400   -0.891053
H         1.723912    1.942293    0.000019
