26
0 2
C        -0.967663   -0.495897   -0.000019
C        -0.852778    1.013930    0.000036
N         0.327980    1.469911    0.000046
C         1.302914    0.394429    0.000000
N         0.461024   -0.818662   -0.000075
C        -1.633275   -1.047761   -1.256651
H        -1.198138   -0.611809   -2.155601
H        -2.703713   -0.844646   -1.250825
H        -1.483736   -2.126244   -1.290320
C        -1.633200   -1.047850    1.256615
H        -1.198012   -0.611960    2.155571
H        -1.483657   -2.126335    1.290200
H        -2.703639   -0.844736    1.250866
C         2.155680    0.439154    1.257004
H         1.525381    0.446900    2.145345
H         2.768973    1.338564    1.257283
H         2.800300   -0.437780    1.290967
C         2.155708    0.439284   -1.256980
H         1.525427    0.447127   -2.145332
H         2.800325   -0.437649   -1.291021
H         2.769005    1.338692   -1.257150
O         0.912319   -1.994142   -0.000069
C        -2.052735    1.892645    0.000077
H        -2.671631    1.700881    0.878381
H        -2.671627    1.700966   -0.878248
H        -1.744726    2.934821    0.000128
