31
0 1
C         1.562616   -0.715615   -0.159656
C         0.205408   -1.442349   -0.164842
C        -0.835700   -0.390999   -0.539181
H        -0.035545   -1.834959    0.821092
H         0.197890   -2.281881   -0.858321
C        -0.243316    0.927244    0.005938
N         1.157811    0.693186   -0.365580
C         2.318415   -0.960481    1.145909
H         1.760041   -0.624053    2.019671
H         3.291880   -0.470174    1.138607
H         2.488826   -2.030279    1.265351
C         2.445342   -1.124294   -1.332071
H         1.896510   -1.030598   -2.268648
H         2.785255   -2.156066   -1.225508
H         3.319361   -0.475051   -1.386511
C        -0.741000    2.158058   -0.734350
H        -0.595375    2.037870   -1.807698
H        -0.176141    3.033938   -0.417225
H        -1.795837    2.341913   -0.527721
C        -0.486118    1.099285    1.507698
H        -0.254747    0.202820    2.077556
H        -1.532936    1.334176    1.694904
H         0.101788    1.933145    1.893386
C        -2.216629   -0.710304   -0.002556
H        -0.889443   -0.288213   -1.624551
O        -2.402475   -1.373406    0.995241
N        -3.244594   -0.173874   -0.706480
O         2.050576    1.635845    0.151076
H         2.085772    1.519890    1.113171
H        -3.095742    0.350104   -1.548377
H        -4.182993   -0.340555   -0.386628
