13
0 1
C         0.558555    1.402683   -0.000000
C         0.833529    0.045904   -0.000000
C        -0.170271   -0.900364    0.000000
C        -0.764200    1.805208   -0.000000
C        -1.791789    0.878377    0.000000
C        -1.490152   -0.475223    0.000000
H        -0.999550    2.860958   -0.000000
H        -2.824780    1.204619    0.000000
O        -2.447898   -1.437149    0.000000
H        -3.320936   -1.033034    0.000001
H         0.053785   -1.956630    0.000000
Cl         2.485655   -0.484653   -0.000000
H         1.364498    2.120859   -0.000000
