18
0 1
C         1.921696    0.876238    0.000002
C         2.576162   -0.341061    0.000000
C         1.848756   -1.517877   -0.000002
C        -1.676060   -0.223334   -0.000000
O        -2.380505    0.751984   -0.000008
O        -2.213178   -1.461832    0.000008
H        -3.172808   -1.338333    0.000006
C         0.534555    0.967086    0.000000
C         0.471032   -1.456840   -0.000003
C        -0.194292   -0.232455   -0.000002
H         2.350267   -2.475820   -0.000003
H        -0.110423   -2.365989   -0.000004
C        -0.095865    2.328062    0.000003
H         3.658013   -0.368903    0.000001
H         2.499910    1.791131    0.000004
H         0.678725    3.093252    0.000007
H        -0.735063    2.472260    0.869280
H        -0.735058    2.472265   -0.869277
