9
0 1
C        -0.517895    0.705403   -0.000011
N         0.746246    0.689862   -0.000001
O         1.240952   -0.612370    0.000015
H         2.193888   -0.482985    0.000013
C        -1.405102   -0.492504   -0.000006
H        -0.941940    1.702982   -0.000024
H        -1.206344   -1.113006    0.874931
H        -1.206272   -1.113067   -0.874882
H        -2.452690   -0.201392   -0.000056
