20
0 2
C         1.298767   -1.257454   -0.460408
C         2.156745    0.000005   -0.535440
C         1.298756    1.257457   -0.460421
H         2.744059    0.000003   -1.455074
H         2.872711    0.000012    0.293180
C        -1.544726   -0.000006   -0.053231
O        -2.100276   -1.025084   -0.504847
O        -2.100301    1.025071   -0.504827
C         0.433505   -1.270740    0.794948
H         1.926421   -2.149637   -0.480844
H         0.656205   -1.311671   -1.344086
C         0.433496    1.270748    0.794936
H         0.656193    1.311659   -1.344098
H         1.926403    2.149645   -0.480866
C        -0.408625    0.000001    0.922937
H         1.072768   -1.338336    1.678678
H        -0.213641   -2.148529    0.805722
H        -0.213657    2.148532    0.805703
H         1.072759    1.338357    1.678665
H        -0.903121    0.000005    1.900489
