18
0 2
C         0.435863    1.239240   -0.187983
C        -1.033259    1.284110    0.214472
C         1.092398   -0.070763    0.326703
H         0.983899    2.090082    0.213902
H         0.535842    1.260968   -1.274949
C        -1.797172    0.059262   -0.272760
H        -1.480793    2.195995   -0.185467
H        -1.108306    1.350558    1.303700
C         0.326540   -1.284642   -0.192137
C        -1.141088   -1.227598    0.211718
H        -1.821417    0.061523   -1.367017
H        -2.834283    0.107443    0.063637
H         0.798475   -2.191942    0.188131
H         0.422951   -1.304059   -1.280888
H        -1.668920   -2.096742   -0.183883
H        -1.222322   -1.286798    1.301931
O         2.380979   -0.019573   -0.100859
H         1.047348   -0.028096    1.427701
