10
0 1
C         0.038380   -0.005814    0.344655
C        -1.402470    0.029868   -0.096216
H        -1.884362    0.943571    0.252333
H        -1.942495   -0.825705    0.307786
H        -1.442593   -0.002413   -1.184070
O         0.601184   -1.188261   -0.123523
H         1.552877   -1.140293    0.016380
O         0.794533    1.059984   -0.204404
H         0.108939    0.044531    1.441764
H         0.626440    1.862195    0.298586
