17
0 2
C         0.851431   -1.178501    0.000212
C         1.983636   -0.272585    0.015220
C         1.696789    1.149255   -0.003406
C         0.420809    1.634569   -0.024579
C        -0.621839    0.708594   -0.027508
C        -0.408242   -0.680721   -0.021864
C        -1.755630   -1.345667   -0.086503
C        -2.707056   -0.160413    0.129133
H        -1.884935   -2.114519    0.673118
H        -1.908881   -1.811188   -1.061067
O        -1.919204    1.041107   -0.043391
H        -3.112521   -0.138343    1.140802
H        -3.525865   -0.116159   -0.583939
H         1.064775   -2.239107    0.002342
H         2.552207    1.810519    0.005927
H         0.206375    2.694221   -0.032540
O         3.150387   -0.692683    0.039782
