17
0 1
C        -1.759968    1.002524    0.002136
C        -2.748365    0.035407    0.030587
C        -2.403675   -1.304498    0.030847
C         1.342172   -1.215196    0.059638
O         1.764457   -2.111801   -0.610482
O         2.050313   -0.602572    1.015143
H         2.955573   -0.945640    0.977545
C        -0.439118    0.609321   -0.024153
C        -1.072000   -1.680920    0.015653
C        -0.067608   -0.726836   -0.000922
H        -3.174148   -2.062971    0.045480
H        -0.791660   -2.724803    0.024069
H        -1.996273    2.055845   -0.015096
N         0.573031    1.664230   -0.167928
O         1.540675    1.411551   -0.850898
O         0.353858    2.724920    0.373630
H        -3.787753    0.332368    0.041630
