12
0 2
C         0.000000    1.306867    0.000000
C        -0.000000    0.644036    1.226185
C        -0.000000   -0.719827    1.233145
C        -0.000000    0.644036   -1.226185
C        -0.000000   -0.719827   -1.233145
C         0.000001   -1.474215    0.000000
F        -0.000000    2.639848    0.000000
H        -0.000000    1.226123    2.137388
H        -0.000001   -1.284296    2.155141
H        -0.000000    1.226123   -2.137388
H        -0.000001   -1.284296   -2.155141
O         0.000000   -2.716090    0.000000
