8
0 2
C         1.681198   -0.542401   -0.000011
C         0.405311    0.225002    0.000013
H         2.515702    0.151207   -0.000024
H         1.724475   -1.185172   -0.878956
H         1.724506   -1.185204    0.878907
O         0.221983    1.386794    0.000004
O        -0.676407   -0.717319    0.000025
O        -1.856043   -0.154029   -0.000022
