16
0 2
C         1.387186    1.240844   -0.000001
C         0.019290    1.420874   -0.000000
C         1.914135   -0.045006   -0.000001
C         1.058143   -1.145270    0.000000
C        -0.304856   -0.958359    0.000001
C        -0.842357    0.328443    0.000001
H        -0.387381    2.423747   -0.000001
H         2.052189    2.092733   -0.000002
H         1.472870   -2.143361    0.000001
H        -0.966071   -1.813887    0.000002
C        -2.279309    0.568471    0.000002
N        -3.120170   -0.390325    0.000001
H        -2.660547    1.585742    0.000003
O        -4.329041   -0.458329    0.000001
C         3.330922   -0.239575   -0.000002
N         4.466218   -0.395514   -0.000002
