26
0 2
C        -1.344271   -0.329318    0.001060
C        -0.347375   -1.468360    0.197889
N         0.867579   -0.954271   -0.418508
C         0.997802    0.455723   -0.007167
N        -0.424388    0.821390    0.029002
C        -2.035175   -0.387411   -1.357290
H        -1.308237   -0.550048   -2.151981
H        -2.554946    0.551180   -1.544785
H        -2.763202   -1.198898   -1.376831
C        -2.357346   -0.215254    1.126372
H        -1.860711   -0.142713    2.093462
H        -3.010607   -1.088133    1.134063
H        -2.967437    0.675376    0.986658
C         1.611635    0.656463    1.373922
H         1.136458    0.020496    2.119279
H         1.468956    1.695992    1.665245
H         2.674922    0.430058    1.357782
C         1.732543    1.255153   -1.061293
H         1.262853    1.116753   -2.033149
H         2.768177    0.920103   -1.115015
H         1.717044    2.313262   -0.807598
O        -0.819048    2.016651    0.036244
H        -0.657243   -2.387541   -0.296417
H        -0.193658   -1.678026    1.261794
O         1.976784   -1.705623    0.034731
H         2.376535   -2.037892   -0.774720
