22
0 1
C         0.764427   -1.182970    0.000026
C         2.146686   -1.210676    0.000022
C         2.865586   -0.026534   -0.000009
C         2.186862    1.178091   -0.000037
C        -1.445310    0.030429    0.000004
O        -1.855738    1.396462   -0.000037
H        -2.816697    1.421407   -0.000005
C         0.073360    0.024015   -0.000002
C         0.800872    1.204682   -0.000033
H         2.664376   -2.160945    0.000044
H         3.947318   -0.045255   -0.000012
H         0.221108   -2.119192    0.000050
H         0.274067    2.146329   -0.000055
H         2.737627    2.109749   -0.000062
C        -1.983323   -0.646162    1.258176
H        -1.619268   -0.126548    2.143167
H        -1.673607   -1.688752    1.316448
H        -3.075531   -0.620363    1.260896
C        -1.983334   -0.646239   -1.258123
H        -3.075543   -0.620438   -1.260834
H        -1.673620   -1.688833   -1.316333
H        -1.619287   -0.126679   -2.143148
