33
0 1
C         0.731610    1.899144   -0.001644
C         1.902342    1.170172   -0.111539
C         1.886636   -0.209909   -0.200046
C         0.663516   -0.859374   -0.168361
C        -0.545061   -0.182444   -0.055267
C        -0.480501    1.214893    0.024499
C         0.740252    3.394334    0.097181
O        -1.580181    2.020172    0.140775
H         0.678204   -1.936049   -0.222399
H         2.848671    1.699217   -0.124816
C        -1.875957   -0.944606   -0.018823
C        -1.667860   -2.456976   -0.122949
H        -2.637660   -2.954557   -0.089496
H        -1.067487   -2.841605    0.700777
H        -1.183354   -2.735645   -1.058213
C        -2.604105   -0.699570    1.313845
H        -3.549017   -1.244917    1.329481
H        -2.828537    0.346768    1.519518
H        -1.992989   -1.056080    2.143103
C        -2.762381   -0.547687   -1.211644
H        -2.259894   -0.793116   -2.147307
H        -3.008034    0.512963   -1.259292
H        -3.703729   -1.098288   -1.177112
C         3.165040   -0.991473   -0.354937
N         3.169037   -2.186754    0.480811
H         4.008668   -0.316891   -0.161609
H         3.265365   -1.322921   -1.392355
H         3.141434   -1.938282    1.461496
H         3.999130   -2.741375    0.321670
H         1.759964    3.774635    0.066704
H         0.270789    3.731723    1.022246
H         0.176450    3.846728   -0.719783
H        -2.380976    1.494569    0.153629
