33
0 1
N         2.099222    0.265914   -0.538913
O         3.307521    0.907455   -0.841521
H         3.055438    1.851941   -0.746197
C         2.396734   -0.947376    0.278081
C         1.167216   -1.811057    0.522308
H         0.418243   -1.321279    1.137809
H         1.499445   -2.705060    1.049433
H         0.701937   -2.124589   -0.409404
C         3.413144   -1.771445   -0.508629
H         3.001809   -2.058238   -1.476481
H         3.649565   -2.677673    0.048450
H         4.330724   -1.215321   -0.676125
C         2.983285   -0.502645    1.617163
H         2.242830    0.050061    2.197334
H         3.853363    0.131685    1.464936
H         3.286779   -1.373306    2.198435
C        -0.288320    0.758475   -0.137287
C        -1.022451    1.293136    0.917651
C        -2.343087    0.954136    1.092172
C        -2.969338    0.097829    0.188598
C        -2.256491   -0.408126   -0.889977
C        -0.919849   -0.075668   -1.040635
H        -0.365507   -0.466249   -1.882920
H        -2.727163   -1.051972   -1.616662
H        -0.542862    1.979672    1.602076
H        -2.921826    1.348770    1.915532
C         1.112628    1.193854   -0.334577
O        -4.269755   -0.172884    0.435669
O         1.390054    2.385888   -0.412567
C        -4.961383   -1.024862   -0.451096
H        -5.973491   -1.105159   -0.065040
H        -4.507005   -2.018175   -0.483544
H        -4.991919   -0.607692   -1.460524
