21
0 1
C         0.000505   -0.683355   -0.000001
C         1.187325    0.040057   -0.000000
C         1.179380    1.425588    0.000000
C        -0.037500    2.083910    0.000001
C        -1.229456    1.380906    0.000000
C        -1.216944   -0.008951   -0.000001
O         0.017140   -2.037522   -0.000001
H         0.942351   -2.313699   -0.000000
H        -0.058169    3.164834    0.000001
H         2.101335    1.986079    0.000001
H        -2.165624    1.916856    0.000000
O        -2.319503   -0.792609   -0.000001
O         2.305522   -0.743849   -0.000001
C         3.564698   -0.109705    0.000011
H         4.307160   -0.902939    0.000016
H         3.694688    0.508481    0.891277
H         3.694703    0.508486   -0.891249
C        -3.579515   -0.164794   -0.000009
H        -4.314910   -0.964661   -0.000013
H        -3.718876    0.453237   -0.891039
H        -3.718887    0.453237    0.891020
