16
0 2
C        -0.842967    0.267874    0.102147
C         0.024978    1.367225   -0.009676
C         1.375123    1.192582   -0.071415
C        -0.313724   -1.031459    0.149701
C         1.033118   -1.238568    0.085435
C         1.952873   -0.131052   -0.028315
H        -0.997697   -1.864640    0.238388
H         1.462030   -2.230791    0.122442
O         3.180919   -0.306489   -0.088602
H        -0.395196    2.365264   -0.053234
H         2.058846    2.025577   -0.162046
C        -2.323949    0.495487    0.210931
O        -3.107462   -0.589834   -0.230518
H        -2.590809    1.419842   -0.312756
H        -2.589777    0.639946    1.261310
H        -2.967761   -0.717153   -1.173998
