15
0 2
C         0.613888   -0.024957   -0.013920
C        -0.072135    1.193334   -0.158413
C        -1.434972    1.225245   -0.152372
C        -0.101588   -1.228547    0.115393
C        -1.462272   -1.225354    0.137256
C        -2.203147    0.009847    0.008309
H         0.462764   -2.146703    0.197865
H        -2.036564   -2.134813    0.247512
O        -3.441894    0.031504    0.027838
C         2.103266   -0.113815   -0.028872
O         2.685359   -1.116214   -0.317852
O         2.785315    0.999275    0.298485
H         2.198993    1.688881    0.628751
H        -1.988472    2.146142   -0.272676
H         0.474807    2.115456   -0.313504
