18
0 2
C        -0.497522    1.495225   -0.030191
C        -0.034111    0.175959   -0.075878
C        -0.893810   -0.884922   -0.068554
C        -1.870626    1.749082    0.042039
C        -2.764205    0.715686    0.066912
C        -2.318129   -0.656075    0.012477
H        -2.217868    2.772984    0.071938
H        -3.831513    0.880728    0.121519
O        -3.120729   -1.603628    0.035244
H        -0.541387   -1.904714   -0.137927
S         1.718222   -0.117131   -0.168918
O         1.917888   -1.398807   -0.777655
O         2.322544    1.063215   -0.716496
C         2.206774   -0.239805    1.528040
H         1.696252   -1.081063    1.989402
H         1.977076    0.691853    2.038723
H         3.282202   -0.408951    1.517065
H         0.215845    2.306104   -0.075836
