33
0 2
C         2.039972    0.599334    0.083974
C         1.923080   -0.953666    0.019187
N         0.489095   -1.219427    0.227905
C        -0.181238   -0.157010   -0.000436
N         0.636660    0.952250   -0.252121
C         2.992430    1.250767   -0.897992
H         2.768495    0.983994   -1.927451
H         4.016159    0.950743   -0.674333
H         2.923950    2.333326   -0.809101
C         2.295037    1.138176    1.489790
H         1.611071    0.701603    2.216210
H         2.148995    2.217688    1.485379
H         3.315757    0.928670    1.805475
O         0.281317    2.116731   -0.559351
C         2.262549   -1.513945   -1.362057
H         1.694651   -1.014020   -2.145940
H         2.004040   -2.571298   -1.384595
H         3.325276   -1.412164   -1.581011
C         2.736786   -1.689570    1.069913
H         2.436188   -1.419974    2.079242
H         3.801648   -1.481188    0.954797
H         2.583892   -2.761330    0.952385
C        -1.650156   -0.095450   -0.000475
C        -2.345283   -1.298906   -0.099687
C        -2.359380    1.094242    0.129145
C        -3.724731   -1.312691   -0.071814
C        -4.428358   -0.124996    0.059033
C        -3.743478    1.072364    0.161233
H        -4.288123    2.001280    0.264649
H        -1.829291    2.030349    0.195728
H        -1.781799   -2.216090   -0.192831
H        -4.254933   -2.252152   -0.152926
H        -5.510193   -0.134939    0.079771
