15
0 1
C        -1.507656   -0.023971    0.000912
C        -0.936823    1.248306    0.001960
C         0.430265    1.393647   -0.006563
C        -0.685188   -1.143100   -0.010712
C         0.690371   -1.009881   -0.019292
C         1.236717    0.261330   -0.011883
H        -1.574294    2.121060    0.008708
H         0.889612    2.371961   -0.008390
H        -1.127686   -2.129302   -0.015798
H         1.330644   -1.875868   -0.033438
O         2.573790    0.524867   -0.019439
O         3.333944   -0.675755   -0.054140
H         3.907961   -0.542598    0.712969
C        -2.928763   -0.174022    0.010518
N        -4.068806   -0.293144    0.019277
