13
0 2
C         0.514205    1.381659    0.000002
C         0.894663    0.027358    0.000001
C        -0.054839   -0.962703    0.000001
C        -0.835513    1.736289   -0.000001
C        -1.805372    0.772978   -0.000001
C        -1.457746   -0.627048    0.000009
H        -1.105207    2.783554   -0.000003
H        -2.858742    1.017059   -0.000004
O        -2.327393   -1.514239   -0.000004
H         0.212295   -2.009865   -0.000002
C         2.288239   -0.306936   -0.000001
N         3.404098   -0.564352   -0.000003
H         1.280291    2.144045    0.000001
