10
0 2
C        -0.352268   -0.057417   -0.000002
N         0.772760   -0.775788    0.000005
O         1.843504   -0.086421    0.000001
C        -0.421382    1.426055   -0.000003
H         0.589418    1.821840   -0.000080
H        -0.952992    1.783200    0.883318
H        -0.953135    1.783194   -0.883240
N        -1.485228   -0.767855   -0.000004
H        -1.414958   -1.772690    0.000012
H        -2.387184   -0.330504    0.000016
