16
0 2
C        -1.839806    0.825562   -0.006823
C        -2.715899   -0.245979    0.005110
C        -2.228917   -1.540674    0.010553
C         1.470907   -1.038411    0.096052
O         2.054892   -1.758947   -0.731475
O         2.193802   -0.745269    1.068638
C        -0.484721    0.580847   -0.013039
C        -0.863986   -1.771130    0.014386
C         0.027595   -0.708593    0.008156
H        -2.912771   -2.378029    0.015610
H        -0.476721   -2.780411    0.031967
H        -2.189233    1.846658   -0.023722
N         0.423541    1.732859   -0.113271
O         1.521533    1.525977   -0.579282
O         0.005331    2.807823    0.252171
H        -3.781555   -0.064643    0.002255
