31
0 1
N         0.870687   -0.389610   -0.303783
O         0.806268   -1.789908   -0.331563
H         0.911236   -2.033916   -1.258213
C         2.227921    0.133598    0.010831
C         2.350792    1.565431   -0.507215
H         2.101098    1.607887   -1.567994
H         3.384093    1.892814   -0.388113
H         1.698921    2.245304    0.028746
C         2.475401    0.062994    1.514878
H         1.770816    0.697969    2.048429
H         3.486382    0.399726    1.746266
H         2.368686   -0.962753    1.869432
C         3.246293   -0.727049   -0.731451
H         3.042280   -0.737729   -1.804017
H         3.263262   -1.749907   -0.363317
H         4.237052   -0.298233   -0.588615
C        -0.287123    0.190300    0.167547
C        -1.542594   -0.647916    0.065273
C        -2.821076    0.163202    0.231790
H        -1.554519   -1.186668   -0.883984
H        -1.473496   -1.420181    0.836006
C        -3.049716    1.087625   -0.957277
H        -2.217949    1.778609   -1.084700
H        -3.957516    1.677226   -0.822666
H        -3.164922    0.509312   -1.878301
C        -4.008488   -0.769360    0.432822
H        -2.705623    0.782094    1.123581
H        -4.145933   -1.421499   -0.433586
H        -4.930690   -0.202853    0.567964
H        -3.873907   -1.404922    1.309644
O        -0.291586    1.315163    0.619904
