20
0 2
C         0.000000    1.625773   -0.000003
C        -1.243289    0.887017   -0.000000
C        -1.223663   -0.478698   -0.000000
C         0.000000   -1.171482   -0.000001
C         1.223663   -0.478698   -0.000001
C         1.243289    0.887017   -0.000001
O         0.000000    2.864129    0.000001
H         0.000000   -2.251991   -0.000001
O         2.315461   -1.273154   -0.000000
O        -2.315461   -1.273154    0.000001
C        -3.583891   -0.650950    0.000002
H        -3.719984   -0.033896   -0.891034
H        -3.719982   -0.033896    0.891038
H        -4.314391   -1.454529    0.000003
C         3.583891   -0.650950    0.000000
H         3.719983   -0.033896    0.891036
H         3.719983   -0.033896   -0.891036
H         4.314391   -1.454529    0.000000
H        -2.150350    1.469944    0.000001
H         2.150350    1.469944    0.000000
