12
0 2
C         1.739746   -0.842632    0.000000
C         0.479149   -1.434484   -0.000000
C        -0.626756   -0.633222   -0.000000
C         1.885150    0.554295    0.000001
C         0.788536    1.362655    0.000001
C        -0.548129    0.816109   -0.000000
H         2.878052    0.983059    0.000001
H         0.866209    2.441236    0.000001
O        -1.564283    1.520561   -0.000000
H         2.618945   -1.472126    0.000000
F        -1.834939   -1.171560   -0.000001
H         0.359324   -2.508955   -0.000000
