13
0 1
C        -0.000000    1.174330    0.000000
C        -1.184241    0.443873    0.000000
C        -1.196761   -0.936094    0.000000
C         0.007985   -1.609246    0.000000
C         1.205302   -0.919273    0.000000
C         1.196231    0.461344    0.000000
O         0.033007    2.515436    0.000000
H        -0.870867    2.857559    0.000000
Cl         0.018993   -3.341112    0.000000
Cl         2.686617    1.326679    0.000000
Cl        -2.680727    1.323297    0.000000
H        -2.133184   -1.472625    0.000000
H         2.145882   -1.448715    0.000000
