23
0 2
C        -0.220006   -0.886399    0.109631
C        -1.552555   -1.125671    0.077159
C         0.224206    0.473178    0.022275
N        -0.635736    1.499879   -0.061007
C        -1.919357    1.263143   -0.078028
C        -2.507450   -0.052931   -0.018253
H        -1.939455   -2.136069    0.128829
H        -2.593488    2.110757   -0.144319
O        -3.735833   -0.226723   -0.046306
N         1.548786    0.767177    0.008630
C         2.567220   -0.262797    0.108359
C         2.031715    2.129257    0.063765
H         2.726356    2.309820   -0.758820
H         2.560511    2.304632    1.005101
H         1.195147    2.812676   -0.010564
C         0.793762   -1.987076    0.238610
C         2.091262   -1.590021   -0.442011
H         0.391400   -2.909057   -0.180079
H         0.987144   -2.180420    1.298437
H         2.864255   -2.342152   -0.284940
H         1.933976   -1.500985   -1.519184
H         2.875030   -0.376315    1.155742
H         3.441644    0.087413   -0.442147
