19
0 2
C         2.550321    0.722201   -0.000010
N         3.431484   -0.199505   -0.000018
O         3.382977   -1.418633   -0.000022
C         1.106860    0.516720   -0.000005
C         0.515463   -0.740016   -0.000007
C         0.275110    1.640161    0.000004
C        -1.092011    1.512119    0.000010
C        -1.673328    0.246062    0.000007
C        -0.862559   -0.880469   -0.000001
H        -1.288816   -1.871754   -0.000004
H         1.133555   -1.626082   -0.000014
H        -1.738514    2.378564    0.000017
H         0.716603    2.628917    0.000006
O        -3.024287    0.214750    0.000013
C        -3.668791   -1.040489    0.000023
H        -3.413265   -1.618475   -0.891385
H        -4.734924   -0.832501    0.000036
H        -3.413242   -1.618472    0.891427
H         2.942302    1.729680   -0.000008
