21
0 1
C         0.426831    1.677537   -0.000000
C        -0.924310    1.413417   -0.000000
C        -1.352427    0.086062   -0.000000
C        -0.441800   -0.951380    0.000000
C         0.921618   -0.652099    0.000000
C         1.371028    0.654075    0.000000
O         0.912933    2.947153   -0.000000
H         0.182437    3.573058    0.000000
H        -0.735969   -1.988060    0.000000
O         1.743401   -1.727669    0.000000
O        -2.694436   -0.089160   -0.000000
C        -3.197077   -1.406648   -0.000000
H        -2.878681   -1.953359    0.890838
H        -2.878681   -1.953358   -0.890839
H        -4.279907   -1.317175   -0.000001
C         3.136073   -1.506993    0.000000
H         3.451621   -0.958635    0.890861
H         3.451621   -0.958635   -0.890860
H         3.598026   -2.490421    0.000001
H        -1.661774    2.205055   -0.000000
H         2.416509    0.915120    0.000000
