14
0 1
C         2.237574    0.332256    0.021022
C         1.814705   -0.989149    0.019352
C         0.469030   -1.295233   -0.002330
C         1.296326    1.343874   -0.001368
C        -0.061303    1.058537   -0.024948
C        -0.459678   -0.264166   -0.020553
H         2.540194   -1.791605    0.034989
H         0.122913   -2.319666   -0.005110
H         1.614358    2.378113   -0.004939
H        -0.796698    1.845742   -0.050690
O        -1.767508   -0.682004   -0.045619
O        -2.664206    0.419370   -0.050025
H        -3.099636    0.304373    0.805983
H         3.292670    0.567401    0.037874
