30
0 1
C         1.281533   -0.050233   -0.034082
C         1.239714    1.416882   -0.469367
C        -0.000000    2.148038    0.012833
H         1.266550    1.451197   -1.561673
H         2.148040    1.905540   -0.111705
C        -1.239714    1.416882   -0.469367
H        -0.000000    3.171488   -0.366383
H        -0.000000    2.227278    1.101643
C        -1.281533   -0.050233   -0.034082
H        -1.266550    1.451197   -1.561673
H        -2.148040    1.905540   -0.111705
N         0.000000   -0.664196   -0.437047
C         2.378699   -0.758335   -0.826343
H         2.132186   -0.763507   -1.888213
H         2.504412   -1.786194   -0.489967
H         3.329467   -0.241044   -0.692847
C         1.610373   -0.175220    1.458553
H         1.026521    0.498728    2.079243
H         2.663011    0.061169    1.618012
H         1.437192   -1.194169    1.798980
C        -2.378699   -0.758335   -0.826343
H        -2.132186   -0.763507   -1.888213
H        -3.329467   -0.241044   -0.692847
H        -2.504412   -1.786194   -0.489967
C        -1.610373   -0.175220    1.458553
H        -1.026521    0.498728    2.079243
H        -1.437192   -1.194169    1.798980
H        -2.663011    0.061169    1.618012
O         0.000000   -2.021374    0.001758
H         0.000000   -2.527199   -0.815784
