15
0 1
C         1.446470   -0.012454   -0.000000
C         1.576286    1.365018    0.000001
C         0.438539    2.154246    0.000001
C        -2.293786   -0.396972   -0.000002
O        -3.310779    0.241043    0.000000
O        -2.290992   -1.741342    0.000002
H        -3.216720   -2.024132    0.000004
C         0.202731   -0.611946   -0.000001
C        -0.814336    1.572413   -0.000000
C        -0.930720    0.189479   -0.000001
H         0.536522    3.231090    0.000002
H        -1.713744    2.171047   -0.000000
H         0.114433   -1.687307   -0.000002
Cl         2.869510   -1.003374   -0.000000
H         2.560910    1.810359    0.000002
