9
0 1
C         0.586967   -0.478542    0.000015
N         1.511022    0.373365   -0.000015
O         2.750049   -0.210333    0.000004
H         3.358179    0.537042   -0.000024
C        -0.834858   -0.010165    0.000001
F        -0.956764    1.310181   -0.000066
F        -1.477513   -0.487604   -1.078216
F        -1.477499   -0.487492    1.078276
H         0.757598   -1.551457    0.000052
