17
0 1
C        -1.767248   -0.752276    0.000248
C        -2.759723    0.215237   -0.004763
C        -2.417391    1.556860   -0.004300
C        -1.085879    1.961217    0.001524
C        -0.128227    0.977985    0.002354
C        -0.445933   -0.374860    0.000771
H        -3.204025    2.298825   -0.008990
H        -0.807005    3.005165    0.002708
C         0.811690   -1.170618    0.007178
N         1.819981   -0.196702    0.060104
C         1.356259    1.117793    0.010686
O         0.989583   -2.350411   -0.011369
O         2.029527    2.105320   -0.007802
O         3.128634   -0.509375   -0.136951
H         3.514006   -0.658003    0.737022
H        -3.793623   -0.100358   -0.009498
F        -2.112496   -2.035668    0.002758
