14
0 2
C        -1.815254   -1.422466    0.132793
C        -0.416998   -1.421374    0.099743
C         0.246181   -0.237514    0.011346
C        -2.535134   -0.224557    0.054590
C        -1.881946    0.968101   -0.063147
C        -0.438598    1.038592   -0.106507
H        -3.616012   -0.251764    0.079998
H        -2.407824    1.908980   -0.147983
O         0.159573    2.103559   -0.277263
N         1.706220   -0.248496    0.037903
O         2.264657   -0.978209   -0.754335
O         2.242258    0.448087    0.864513
H        -2.340873   -2.363211    0.218518
H         0.139767   -2.346719    0.147910
