13
0 1
C         1.375972   -0.008331   -0.000000
C         0.715397    1.201877   -0.000000
C        -0.666433    1.213780    0.000000
C         0.696583   -1.204128   -0.000000
C        -0.689016   -1.187423    0.000000
C        -1.370968    0.019050    0.000000
F         2.723249   -0.019098   -0.000000
H         1.284050    2.121106   -0.000000
H        -1.214680    2.145301    0.000000
H         1.246667   -2.134446   -0.000000
H        -1.237844   -2.121618    0.000000
O        -2.730928    0.092964    0.000000
H        -3.109212   -0.791126    0.000001
