19
0 1
C        -0.827305    1.408296   -0.000001
C        -1.656224    0.287745   -0.000000
C        -1.100636   -0.987263   -0.000002
C         2.562995   -0.234483   -0.000004
O         3.104102   -1.309051   -0.000000
O         3.271583    0.912937    0.000003
H         4.205060    0.658275    0.000007
C         0.538219    1.255300   -0.000003
C         0.274236   -1.127648   -0.000003
C         1.104814   -0.018450   -0.000004
H        -1.725045   -1.867064   -0.000001
H         0.723715   -2.110902   -0.000004
H        -1.284619    2.387736    0.000000
H         1.179589    2.124373   -0.000003
O        -2.981418    0.536077    0.000002
C        -3.876492   -0.556219    0.000006
H        -4.874387   -0.127441    0.000010
H        -3.748045   -1.174172    0.891597
H        -3.748052   -1.174174   -0.891584
