29
0 2
C        -0.071887    0.026928    1.316838
C         1.381725    0.492891    1.234672
C         2.107944   -0.006077   -0.000000
H         1.888329    0.174235    2.147246
H         1.398682    1.586175    1.230639
C         1.381725    0.492891   -1.234672
H         2.171056   -1.096080   -0.000000
H         3.135665    0.360113   -0.000000
C        -0.071887    0.026928   -1.316838
H         1.888329    0.174235   -2.147246
H         1.398682    1.586175   -1.230639
N        -0.743112    0.201038    0.000000
C        -0.164116   -1.442207    1.735607
H         0.452771   -2.088940    1.114592
H        -1.197082   -1.778510    1.664947
H         0.167301   -1.551736    2.768535
C        -0.822270    0.885982    2.327220
H        -0.839268    1.927378    2.006337
H        -0.319729    0.828682    3.293267
H        -1.848088    0.546343    2.440218
C        -0.164116   -1.442207   -1.735607
H         0.452771   -2.088940   -1.114592
H         0.167301   -1.551736   -2.768535
H        -1.197082   -1.778510   -1.664947
C        -0.822270    0.885982   -2.327220
H        -0.839268    1.927378   -2.006337
H        -1.848088    0.546343   -2.440218
H        -0.319729    0.828682   -3.293267
O        -2.004983    0.064348    0.000000
