8
0 1
C         1.066136   -0.022767   -0.000002
O         2.128957   -0.563927    0.000000
O         0.935865    1.300320   -0.000001
H        -0.002815    1.544409   -0.000002
C        -0.197775   -0.868320    0.000000
Cl        -1.726773    0.053371    0.000001
H        -0.185395   -1.498169    0.884136
H        -0.185397   -1.498169   -0.884135
