14
0 2
C        -1.738589   -0.900957    0.000003
C        -0.481432   -1.453108    0.000005
C         0.640990   -0.623972    0.000000
C        -1.924264    0.501205   -0.000004
C        -0.857401    1.341435   -0.000007
C         0.486796    0.834491   -0.000007
H        -2.930343    0.898826   -0.000005
H        -0.971846    2.416732   -0.000010
O         1.499168    1.552025    0.000005
H        -2.604487   -1.549107    0.000006
H        -0.354010   -2.528585    0.000010
N         1.906193   -1.064053   -0.000007
H         2.137853   -2.039122    0.000055
H         2.629544   -0.361131    0.000019
