25
0 1
C        -1.385161   -0.686544   -0.046910
C        -0.084797   -1.438658    0.026423
C         0.937770   -0.609163   -0.000346
C         0.530189    0.839534   -0.098510
N        -0.891726    0.646813   -0.456263
C        -2.317835   -1.221673   -1.126108
H        -1.799613   -1.264437   -2.082127
H        -3.176676   -0.558632   -1.230809
H        -2.680912   -2.219058   -0.872105
C        -2.099049   -0.707916    1.308850
H        -1.476372   -0.304762    2.107120
H        -2.344175   -1.735551    1.575971
H        -3.032838   -0.147115    1.264626
C         0.763206    1.560085    1.232022
H         0.242047    1.077037    2.058273
H         0.443800    2.599630    1.165091
H         1.826552    1.553071    1.467226
C         1.227334    1.592208   -1.222841
H         1.131030    1.045291   -2.158776
H         2.284455    1.741026   -1.003493
H         0.755321    2.566788   -1.344290
O        -1.722933    1.708246   -0.096136
H        -1.742820    1.765213    0.871842
Cl         2.599747   -1.044998    0.094461
H        -0.029886   -2.514438    0.103056
