17
0 1
C         0.967137    0.193977    0.000002
O         1.510347    1.256147   -0.000004
O         1.716227   -0.931552   -0.000005
H         1.159613   -1.717719   -0.000005
C        -0.549222   -0.006771    0.000002
C        -0.959316   -0.783333    1.256441
H        -0.641399   -0.264556    2.160895
H        -0.543423   -1.792205    1.284141
H        -2.044800   -0.881114    1.286145
C        -0.959313   -0.783356   -1.256423
H        -0.641392   -0.264597   -2.160887
H        -2.044798   -0.881134   -1.286130
H        -0.543424   -1.792229   -1.284104
C        -1.221793    1.360366   -0.000011
H        -0.936239    1.937138    0.877757
H        -2.305451    1.237233   -0.000011
H        -0.936237    1.937123   -0.877788
