13
0 1
C         1.239347    1.065447   -0.000000
C         1.183332   -0.313086   -0.000000
C         0.001832   -1.017160    0.000000
C         0.040961    1.756483   -0.000000
C        -1.170447    1.086638    0.000000
C        -1.185682   -0.301271    0.000000
H        -0.002924   -2.097091    0.000000
H         0.049383    2.838012   -0.000000
H        -2.102078    1.639049    0.000000
O        -2.338376   -1.017476    0.000001
H        -3.094550   -0.422741    0.000001
H         2.195097    1.567969   -0.000001
F         2.334003   -1.005299   -0.000000
