9
0 2
C         0.431093   -0.037043   -0.358329
O         1.091981   -1.033438    0.410994
O         2.147676   -1.488517   -0.209333
C        -1.056273   -0.142608   -0.020631
Cl         1.061324    1.557899    0.017557
H         0.585825   -0.246884   -1.412762
F        -1.747461    0.750103   -0.725259
F        -1.493542   -1.359804   -0.347349
F        -1.291721    0.055939    1.269802
