20
0 1
C        -2.356504   -0.509523   -0.000004
N        -3.233161    0.402178   -0.000007
O        -4.517202   -0.128628   -0.000008
H        -5.080836    0.650775   -0.000011
C        -0.927866   -0.210305   -0.000002
C        -0.016577   -1.252995   -0.000002
C        -0.438259    1.099169   -0.000000
C         0.911794    1.342426    0.000002
C         1.819466    0.282246    0.000002
C         1.351389   -1.022219    0.000000
H         2.031135   -1.860179   -0.000000
H        -0.376794   -2.274400   -0.000003
H         1.300706    2.351351    0.000003
H        -1.139361    1.921861   -0.000000
O         3.127563    0.625247    0.000003
H        -2.664732   -1.554781   -0.000003
C         4.091533   -0.403878    0.000013
H         4.004635   -1.030314    0.891320
H         5.059978    0.088283    0.000020
H         4.004650   -1.030318   -0.891295
