27
0 2
C         2.244665   -0.625980   -0.000007
C         1.302366   -1.715501   -0.000015
C        -0.043530   -1.493644   -0.000011
C        -0.565130   -0.188803    0.000000
C         0.342118    0.889027    0.000007
C         1.697567    0.722776    0.000003
H        -0.047788    1.898895    0.000014
H         1.714709   -2.715540   -0.000023
H        -0.713673   -2.339948   -0.000017
C         2.653331    1.865092    0.000011
H         2.128620    2.818913    0.000015
H         3.307398    1.817318   -0.871484
H         3.307397    1.817309    0.871506
C        -2.059665    0.097017    0.000004
C        -2.898845   -1.179207    0.000006
H        -2.710567   -1.788624   -0.884327
H        -3.956781   -0.916587    0.000005
H        -2.710567   -1.788620    0.884341
C        -2.418103    0.908564   -1.252825
H        -2.172535    0.353983   -2.159104
H        -1.887602    1.859050   -1.286958
H        -3.487923    1.122187   -1.264117
C        -2.418099    0.908565    1.252833
H        -2.172530    0.353984    2.159111
H        -3.487918    1.122190    1.264127
H        -1.887596    1.859050    1.286965
O         3.469664   -0.825125   -0.000011
