17
0 1
C        -0.923022    0.281047    0.000000
C        -0.058011    1.371458    0.000000
C         1.305302    1.185567   -0.000000
C        -0.398687   -0.999412   -0.000001
C         0.979987   -1.183708   -0.000001
C         1.833221   -0.099666   -0.000001
H        -1.041521   -1.866325   -0.000001
H         1.381525   -2.190518   -0.000001
O         3.193032   -0.223150   -0.000001
H         3.435476   -1.153534   -0.000005
H        -0.482109    2.366176    0.000001
H         1.981187    2.029535   -0.000000
O        -2.252481    0.571843    0.000001
C        -3.163337   -0.500126    0.000003
H        -4.155923   -0.057772    0.000005
H        -3.047880   -1.124028    0.890949
H        -3.047883   -1.124029   -0.890943
