29
0 1
C         0.939013    1.254789   -0.008266
C        -0.443686    1.198616   -0.167316
C        -1.071383   -0.040841   -0.232031
C        -0.359628   -1.234727   -0.168549
C         1.024036   -1.179945   -0.009202
C         1.646756    0.062404    0.068359
O         3.005056    0.152957    0.216608
H         3.387923   -0.726494    0.263848
C         1.654996    2.571348    0.070457
H         1.637544    3.088307   -0.892051
H         2.693296    2.434594    0.355720
H         1.182140    3.233743    0.796653
C        -1.083299   -2.546762   -0.289599
H        -2.127222   -2.381819   -0.537657
H        -1.038443   -3.120788    0.638394
H        -0.649874   -3.166456   -1.075305
C         1.870521   -2.419419    0.079639
H         1.270939   -3.323588    0.068863
H         2.453695   -2.441481    1.005558
H         2.573033   -2.491307   -0.756442
O        -2.442162   -0.087136   -0.402806
C        -3.172488   -0.088584    0.807303
H        -2.925289   -0.962127    1.417787
H        -4.227957   -0.120316    0.544014
H        -2.972635    0.813586    1.392374
C        -1.242393    2.463763   -0.282982
H        -1.281447    2.999668    0.668507
H        -2.259497    2.251415   -0.598671
H        -0.794032    3.142645   -1.008892
