32
0 2
N         1.817641   -0.361082   -0.227846
O         1.400046   -1.389068   -0.834534
C         3.286865   -0.247150    0.079970
C         3.474670    0.202412    1.526624
H         3.103360    1.208552    1.691729
H         4.538172    0.181892    1.763905
H         2.966379   -0.479587    2.209556
C         3.894671   -1.630241   -0.101465
H         3.422815   -2.361281    0.553333
H         4.952833   -1.570970    0.150789
H         3.797489   -1.982127   -1.124921
C         3.925832    0.733110   -0.901535
H         3.530150    1.736106   -0.771317
H         3.748583    0.410990   -1.928012
H         5.003260    0.755787   -0.735554
C        -0.537775    0.437395   -0.036185
C        -1.130370   -0.796295    0.193990
C        -2.507270   -0.931496    0.210852
C        -3.312812    0.175920   -0.022967
C        -2.728274    1.419654   -0.253255
C        -1.361778    1.544948   -0.246598
H        -0.901328    2.510111   -0.403029
H        -3.371891    2.270106   -0.429173
H        -0.519391   -1.667972    0.363768
H        -2.937611   -1.902360    0.401188
C         0.916401    0.706814    0.024260
O        -4.660808    0.143436   -0.042732
O         1.359691    1.802754    0.279075
C        -5.312163   -1.089014    0.181007
H        -6.376655   -0.883383    0.115143
H        -5.081070   -1.485775    1.172310
H        -5.038001   -1.825838   -0.577465
