11
0 2
C         0.335298   -0.018908   -0.000000
N        -0.786276   -0.616411   -0.000001
O        -1.951032   -0.238282   -0.000002
C         1.586757   -0.832278    0.000002
C         0.415172    1.476314    0.000001
H         1.358362   -1.895379    0.000004
H         2.193823   -0.604295    0.878875
H         2.193824   -0.604299   -0.878871
H        -0.576728    1.921024   -0.000020
H         0.959789    1.826656   -0.879204
H         0.959751    1.826657    0.879228
