17
0 1
N         0.000000   -0.004417   -0.213787
O         0.000000    1.355302    0.167612
H         0.000000    1.375221    1.142064
C        -1.209129   -0.630413    0.284846
C        -2.457258   -0.056484   -0.351114
H        -1.261208   -0.537796    1.385215
H        -1.127449   -1.694715    0.058879
H        -2.546163    1.007451   -0.141143
H        -3.344257   -0.560472    0.033824
H        -2.423625   -0.186448   -1.432394
C         1.209129   -0.630413    0.284846
C         2.457258   -0.056484   -0.351114
H         1.127449   -1.694715    0.058879
H         1.261208   -0.537796    1.385215
H         2.423624   -0.186448   -1.432394
H         3.344257   -0.560472    0.033824
H         2.546163    1.007451   -0.141142
