12
0 1
O        -1.460345   -0.548450   -0.458107
O        -1.985122    0.396391    0.473591
H        -1.515471    1.200447    0.191565
C        -0.203927   -0.946154    0.004983
C         0.832613    0.159063   -0.052820
H         0.101368   -1.772461   -0.642447
H        -0.262220   -1.324316    1.032745
O         0.511826    1.298203   -0.284215
C         2.256617   -0.246638    0.190903
H         2.330264   -0.949934    1.021310
H         2.864270    0.632560    0.386523
H         2.639097   -0.753075   -0.698240
