25
0 1
C        -1.261692   -1.192081   -0.329285
C        -2.568581   -1.195638    0.126852
C        -3.226350   -0.000000    0.360566
C        -2.568582    1.195638    0.126853
C         1.914349   -0.000000    0.062859
O         3.137784   -0.000003   -0.678830
H         3.873452    0.000001   -0.058807
C        -0.583474    0.000000   -0.556012
C        -1.261692    1.192081   -0.329284
H        -3.076982   -2.136143    0.294425
H        -4.248900   -0.000000    0.713796
H        -0.759048   -2.132258   -0.518939
H        -0.759048    2.132259   -0.518939
H        -3.076982    2.136143    0.294425
C         1.846750   -1.251549    0.925334
H         1.934380   -2.143804    0.305570
H         0.912478   -1.302122    1.483121
H         2.666874   -1.255146    1.646626
C         1.846754    1.251551    0.925331
H         2.666879    1.255146    1.646623
H         0.912482    1.302127    1.483119
H         1.934387    2.143804    0.305566
C         0.840705    0.000000   -1.034614
H         1.024318    0.875520   -1.658772
H         1.024317   -0.875519   -1.658772
