12
0 2
C         0.000000   -1.264823   -0.000000
C        -0.000000   -0.476980    1.231427
C        -0.000000    0.886737    1.222609
C        -0.000000    1.562219    0.000000
C        -0.000000    0.886737   -1.222609
C        -0.000000   -0.476980   -1.231427
O         0.000001   -2.488817   -0.000000
Cl        -0.000000    3.277728    0.000000
Cl        -0.000000   -1.335263   -2.706181
Cl        -0.000000   -1.335263    2.706181
H        -0.000000    1.443324    2.147720
H        -0.000000    1.443324   -2.147720
