21
0 1
C         1.101042   -1.200736    0.000018
C        -0.273351   -1.127502    0.000020
C         1.832720   -0.026490    0.000001
C         1.223793    1.208910   -0.000012
C        -0.157593    1.268025   -0.000009
C        -0.924980    0.107362    0.000006
H        -0.864022   -2.030660    0.000033
H         1.615749   -2.149059    0.000028
H         1.827443    2.103155   -0.000025
H        -0.633578    2.236914   -0.000020
C        -2.405749    0.186379    0.000006
N        -3.018637   -0.927742   -0.000018
O        -4.394320   -0.807419   -0.000020
H        -4.693224   -1.721894   -0.000039
C        -3.080755    1.520987    0.000030
H        -2.787240    2.094919    0.879790
H        -4.158388    1.408364    0.000055
H        -2.787283    2.094929   -0.879737
N         3.298986   -0.098337   -0.000006
O         3.808262   -1.198743    0.000006
O         3.914475    0.946696   -0.000020
