27
0 2
C        -1.252723   -0.744626    0.000478
C        -1.232942    0.628082    0.007589
C        -0.000003    1.321619   -0.019705
C         1.232940    0.628087    0.007589
C         1.252726   -0.744621    0.000477
C         0.000003   -1.483895   -0.012218
O         0.000006   -2.725918   -0.026013
C         2.517637    1.411357    0.041846
H         2.479109    2.206652    0.786067
H         2.724347    1.882496   -0.922143
H         3.364730    0.777069    0.282082
C         2.516470   -1.545679    0.002326
H         3.170222   -1.262868   -0.824049
H         2.278289   -2.601220   -0.084881
H         3.079713   -1.397845    0.926416
C        -2.517642    1.411347    0.041846
H        -3.364731    0.777057    0.282088
H        -2.724357    1.882479   -0.922145
H        -2.479115    2.206647    0.786062
C        -0.000008    2.820291   -0.061186
H        -0.878448    3.210224   -0.568478
H         0.878444    3.210232   -0.568452
H        -0.000025    3.240757    0.949852
C        -2.516463   -1.545689    0.002326
H        -3.170216   -1.262881   -0.824049
H        -3.079706   -1.397858    0.926416
H        -2.278278   -2.601230   -0.084882
