28
0 1
C         1.283827    0.213640    0.046637
C         0.532865    1.209744    0.953922
C        -0.944101    1.095773    0.601153
H         0.867625    2.234849    0.809533
H         0.686960    0.955694    2.001641
C        -1.083716   -0.351631    0.104198
N         0.173970   -0.495117   -0.636531
C         2.106558    0.928218   -1.019010
H         1.476473    1.620776   -1.574646
H         2.528840    0.204237   -1.718048
H         2.931773    1.483173   -0.568865
C         2.190109   -0.706838    0.859046
H         1.631935   -1.291096    1.588203
H         2.923515   -0.102325    1.394581
H         2.723580   -1.401429    0.213746
C        -1.221369   -1.297324    1.300640
H        -0.507484   -1.071861    2.090754
H        -1.062786   -2.325835    0.983036
H        -2.223000   -1.218236    1.724412
C        -2.250382   -0.564378   -0.846325
H        -2.134860    0.047906   -1.739060
H        -3.201507   -0.330319   -0.362819
H        -2.289835   -1.608470   -1.156959
O         0.473397   -1.854022   -0.890300
H         0.489826   -1.911170   -1.849824
O        -1.225426    2.075292   -0.383673
H        -1.584623    1.256743    1.473980
H        -2.140737    1.989796   -0.663732
