24
0 2
C        -1.255834    0.453785    0.000004
C        -1.233422   -0.920869   -0.000004
C         0.000000   -1.583337   -0.000008
C         1.233422   -0.920869   -0.000005
C         1.255834    0.453786    0.000004
C        -0.000000    1.191585    0.000015
O        -0.000000    2.433979    0.000009
C        -2.531300    1.227345    0.000007
H        -3.136841    0.986380   -0.876808
H        -2.323849    2.293023   -0.000003
H        -3.136826    0.986396    0.876836
C         2.506698   -1.715553   -0.000012
H         2.303085   -2.784849   -0.000038
H         3.116071   -1.488156    0.876530
H         3.116087   -1.488116   -0.876532
C         2.531300    1.227345    0.000004
H         3.136822    0.986407   -0.876831
H         3.136846    0.986369    0.876813
H         2.323849    2.293023    0.000029
C        -2.506698   -1.715553   -0.000009
H        -3.116073   -1.488149    0.876529
H        -2.303085   -2.784849   -0.000026
H        -3.116084   -1.488123   -0.876533
H         0.000000   -2.667178   -0.000016
