16
0 1
C        -0.383804   -0.000227    0.032929
O         0.731448   -0.047650   -0.877407
O         1.951224    0.103611   -0.146997
H         2.342025   -0.773455   -0.250034
C        -0.317545   -1.163479    1.009208
C        -0.407051    1.337603    0.752966
H         0.482441    1.457864    1.368024
H        -1.284477    1.404046    1.396975
H        -0.442304    2.153559    0.031603
C        -1.566433   -0.140654   -0.910135
H        -1.524836   -1.090692   -1.442122
H        -1.568337    0.666784   -1.641269
H        -2.496939   -0.099652   -0.344728
H        -0.253422   -2.109425    0.469939
H        -1.212468   -1.185250    1.631198
H         0.545936   -1.070930    1.665834
