32
0 2
C         0.801997    1.921894    0.006278
C         1.930578    1.157942   -0.070890
C         1.858512   -0.237444   -0.133704
C         0.608613   -0.873813   -0.114581
C        -0.570356   -0.182827   -0.036596
C        -0.506628    1.278530    0.028209
C         0.838465    3.409357    0.078603
O        -1.522112    1.987083    0.103285
H         0.615474   -1.951273   -0.159659
H         2.903289    1.637336   -0.078034
C        -1.922550   -0.879793   -0.017307
C        -1.778669   -2.399358   -0.095875
H        -2.770353   -2.851652   -0.077414
H        -1.216164   -2.801092    0.747719
H        -1.287857   -2.716262   -1.016813
C        -2.660423   -0.541592    1.287187
H        -3.620080   -1.060941    1.309026
H        -2.840883    0.525962    1.372257
H        -2.082389   -0.869600    2.153029
C        -2.759935   -0.421325   -1.220956
H        -2.252964   -0.662043   -2.157088
H        -2.943517    0.648585   -1.188779
H        -3.719866   -0.940605   -1.216845
C         3.122091   -1.040993   -0.268011
N         3.011851   -2.359157    0.332788
H         3.955569   -0.442648    0.121254
H         3.322258   -1.182048   -1.335367
H         2.970458   -2.302701    1.341880
H         3.794829   -2.945368    0.081627
H         1.862681    3.777736    0.057267
H         0.349893    3.762584    0.987401
H         0.283394    3.847988   -0.751397
