17
0 2
C         1.508912    0.996941   -0.000084
C         0.364536   -0.011840   -0.000002
H         2.472403    0.485713   -0.000044
H         1.473772    1.637975   -0.883566
C         0.429962   -0.884439    1.250299
O        -2.091693    0.015996    0.000011
H         1.350619   -1.469473    1.265160
H        -0.412960   -1.574954    1.282550
H         0.404943   -0.276311    2.157143
H         1.473774    1.638116    0.883296
C         0.429957   -0.884640   -1.250161
H         1.350609   -1.469685   -1.264927
H         0.404948   -0.276656   -2.157103
H        -0.412971   -1.575152   -1.282305
C        -0.956557    0.761179   -0.000058
H        -1.016238    1.444539   -0.867983
H        -1.016215    1.444716    0.867727
