18
0 1
C        -1.120045    1.248821   -0.223705
C         0.342684    1.202284    0.187433
C        -1.855521    0.000000    0.243931
H        -1.179665    1.325149   -1.312220
H        -1.579476    2.148363    0.189115
C        -1.120045   -1.248821   -0.223705
H        -2.883416    0.000000   -0.122368
H        -1.908655    0.000000    1.337001
C         0.342684   -1.202284    0.187433
H        -1.179665   -1.325149   -1.312220
H        -1.579476   -2.148363    0.189115
N         0.965597    0.000000   -0.342531
H         0.432501    1.224423    1.284098
H         0.885979    2.060581   -0.205891
H         0.885979   -2.060581   -0.205891
H         0.432501   -1.224423    1.284098
O         2.317640    0.000000    0.117319
H         2.834551    0.000000   -0.694004
