16
0 1
C         0.104804    1.509703   -0.018182
C        -0.271686    0.175049   -0.030643
C         0.670695   -0.834426   -0.021675
C         1.449900    1.824168    0.001831
C         2.407818    0.825023    0.010449
C         2.017186   -0.504914   -0.001744
H         1.760859    2.859894    0.008383
H         3.461212    1.079057    0.023755
O         2.906439   -1.529547    0.002444
H         3.806279   -1.189331    0.014125
H         0.380700   -1.874719   -0.036654
C        -1.730317   -0.176473   -0.003130
F        -2.470176    0.696508   -0.702637
F        -1.971033   -1.394292   -0.506745
F        -2.215069   -0.172738    1.251706
H        -0.644460    2.287389   -0.031516
