19
0 1
C        -1.072357    1.495864    0.000000
C         0.166292    2.113217   -0.000000
C         1.318656    1.356044   -0.000000
C        -1.178792    0.111771    0.000000
C        -0.018953   -0.667796    0.000000
C         1.217695   -0.024795   -0.000000
O         2.386809   -0.725385   -0.000000
H         2.209611   -1.669965   -0.000000
H         2.300480    1.808379   -0.000000
H        -1.973156    2.095333    0.000000
C        -0.052228   -2.170543    0.000000
H         0.444199   -2.584234   -0.883126
H        -1.066790   -2.555702    0.000000
H         0.444199   -2.584234    0.883126
H         0.232726    3.193119   -0.000000
C        -2.542626   -0.521263    0.000000
H        -3.316368    0.243893    0.000000
H        -2.697745   -1.149250    0.879105
H        -2.697745   -1.149250   -0.879104
