7
0 1
C        -0.381925    0.008385   -0.002881
O         0.717575    0.820734   -0.044941
O         1.866113   -0.012644   -0.119673
H         2.178704    0.005596    0.797663
F        -1.422920    0.820122    0.046471
F        -0.479579   -0.773716   -1.066109
F        -0.381574   -0.770919    1.079252
