15
0 2
C         0.200217    1.452034    0.000001
C        -0.226846    0.114693   -0.000001
C         0.675441   -0.906062   -0.000002
C         1.561246    1.758947    0.000002
C         2.494788    0.759633    0.000001
C         2.093730   -0.625703   -0.000001
H         1.869937    2.795453    0.000004
H         3.556647    0.963625    0.000002
O         2.928115   -1.545182   -0.000002
H         0.371196   -1.942540   -0.000004
C        -1.705093   -0.152461   -0.000000
F        -2.296823    0.388861   -1.076979
F        -1.989566   -1.456235   -0.000018
F        -2.296815    0.388830    1.076999
H        -0.534745    2.245329    0.000002
