20
0 1
C        -1.499314   -1.216971    0.000005
C        -0.126151   -1.138809    0.000005
C        -2.264994   -0.052044    0.000000
C        -1.634778    1.184058   -0.000004
C        -0.254522    1.252754   -0.000004
C         0.520452    0.098045    0.000001
H         0.468749   -2.039442    0.000009
H        -1.992040   -2.179075    0.000008
H        -2.226779    2.088302   -0.000008
H         0.215421    2.224829   -0.000007
C         2.000615    0.184283    0.000001
N         2.620378   -0.925956   -0.000005
O         3.996335   -0.796674   -0.000005
H         4.300433   -1.709337   -0.000010
C        -3.693328   -0.130652   -0.000000
N        -4.837593   -0.193990   -0.000001
C         2.667982    1.522846    0.000007
H         2.370998    2.095021    0.879760
H         2.371011    2.095024   -0.879748
H         3.746262    1.416626    0.000014
