16
0 2
C        -2.947482   -1.201366    0.000002
C        -3.638272   -0.000009    0.000001
C        -2.947495    1.201355   -0.000002
C         3.179590   -0.000013    0.000000
O         3.875669   -1.036453    0.000004
O         3.875663    1.036456    0.000004
C        -1.566722   -1.206557    0.000001
C        -1.566735    1.206562   -0.000003
C        -0.867564    0.000007   -0.000002
H        -1.018220    2.138055   -0.000005
H        -1.018196   -2.138043    0.000002
H        -4.719981   -0.000015    0.000001
H        -3.487758    2.138081   -0.000003
H        -3.487734   -2.138098    0.000004
C         0.554119    0.000015   -0.000004
C         1.754101    0.000005   -0.000004
