8
0 2
C        -0.461882    0.665190    0.000001
N         0.792369    0.470640    0.000000
O         1.497749   -0.523661   -0.000001
C        -1.466411   -0.440178    0.000000
H        -0.770430    1.701433    0.000002
H        -0.971164   -1.408597   -0.000016
H        -2.108621   -0.374041   -0.879837
H        -2.108601   -0.374061    0.879854
