11
0 1
C         0.081549    0.851194    0.354405
O         1.318628    0.444600   -0.213721
O         1.507103   -0.933886    0.096328
H         1.120638   -1.375997   -0.672919
C        -1.091869    0.305157   -0.390947
H         0.121347    1.940363    0.280008
H         0.051993    0.567113    1.408370
C        -1.986862   -0.508980    0.138853
H        -1.176405    0.608146   -1.430314
H        -1.913571   -0.827214    1.172071
H        -2.826761   -0.882347   -0.431927
