31
0 1
C        -1.587182   -1.052671   -0.035685
C        -0.101224   -1.239952   -0.007488
C         0.546430   -0.084886   -0.047493
C        -0.404110    1.089166   -0.115277
N        -1.653958    0.363856   -0.442446
C        -2.272008   -1.911199   -1.092636
H        -1.807375   -1.753484   -2.064134
H        -3.321951   -1.628103   -1.166310
H        -2.216399   -2.970731   -0.837091
C        -2.190010   -1.352895    1.342063
H        -1.743287   -0.744263    2.127543
H        -2.018503   -2.397908    1.599203
H        -3.267160   -1.187046    1.331405
C        -0.440355    1.842821    1.217770
H        -0.699375    1.191624    2.053130
H        -1.153095    2.666439    1.173483
H         0.544185    2.261389    1.416214
C        -0.098450    2.062501   -1.246697
H         0.003895    1.523922   -2.187566
H         0.816455    2.617485   -1.048658
H        -0.927443    2.763210   -1.346183
O        -2.823505    1.021378   -0.060312
H        -2.823948    1.103007    0.906114
H         0.364140   -2.212764    0.059160
C         2.007555    0.081024    0.028790
O         2.662643   -1.084768   -0.052905
O         2.568016    1.138419    0.163013
C         4.083331   -1.001259    0.039745
H         4.445003   -2.021174   -0.046480
H         4.379312   -0.569706    0.994434
H         4.482154   -0.385025   -0.764067
