18
0 1
C         2.233714   -0.623314    0.000003
N         3.341157   -0.013907   -0.000001
O         4.407134   -0.890021   -0.000002
H         5.178109   -0.313759   -0.000006
C         0.966506    0.109754    0.000003
C        -0.219454   -0.608407    0.000002
C         0.916755    1.503699    0.000003
C        -0.295280    2.163825    0.000002
C        -1.484281    1.452093    0.000001
C        -1.418723    0.075346    0.000001
H        -0.224405   -1.688291    0.000002
H        -0.320321    3.244641    0.000001
H         1.844069    2.058653    0.000003
H        -2.445175    1.942617    0.000000
N        -2.670881   -0.697011   -0.000002
O        -2.585241   -1.906167   -0.000002
O        -3.712602   -0.078018   -0.000005
H         2.206048   -1.711749    0.000004
