18
0 2
C        -0.152838    0.155456    0.000003
C         0.404427   -1.135344    0.000001
C         1.756965   -1.296481   -0.000001
C         0.674011    1.292500    0.000002
C         2.028267    1.158459    0.000001
C         2.642665   -0.151794    0.000001
H         0.201567    2.264720    0.000003
H         2.690966    2.012839    0.000000
O         3.874202   -0.289565   -0.000004
C        -1.620851    0.374205    0.000003
O        -2.136355    1.460699    0.000001
O        -2.312350   -0.768707   -0.000001
H         2.218599   -2.274277   -0.000002
H        -0.254959   -1.990531    0.000002
C        -3.734113   -0.631465   -0.000004
H        -4.127596   -1.642826   -0.000009
H        -4.061874   -0.091274   -0.886113
H        -4.061879   -0.091280    0.886106
