11
0 2
O        -0.000003    1.414654    0.146388
C         0.000000    0.122361   -0.296267
C         1.276196   -0.623000    0.078014
H         1.319516   -0.763461    1.158809
H         2.151272   -0.054072   -0.230953
C        -1.276194   -0.623004    0.078014
H        -0.000001    0.270027   -1.396882
H        -1.319514   -0.763464    1.158809
H        -1.306305   -1.605166   -0.394248
H        -2.151272   -0.054078   -0.230954
H         1.306310   -1.605162   -0.394249
