9
0 1
O         1.104486    0.678304   -0.628724
N         2.127620   -0.238244   -0.041911
O         1.801994   -1.352991    0.138882
O         3.127749    0.364029    0.123627
O        -0.069928   -0.038827   -0.865905
C        -0.984421    0.284544    0.128178
Cl        -2.397021   -0.683262   -0.206815
F        -1.277289    1.579234    0.097309
F        -0.495140    0.017631    1.335705
