16
0 1
O         0.576361    0.625178   -0.000147
N         1.599385   -0.289012    0.000040
O         2.642801    0.241548   -0.000078
C        -0.743229   -0.006837    0.000009
C        -1.688152    1.179082   -0.000237
H        -1.529449    1.795370   -0.884290
H        -1.529419    1.795760    0.883540
C        -0.905253   -0.839761    1.259972
H        -1.920277   -1.233705    1.312900
H        -0.727085   -0.229330    2.145075
H        -0.211551   -1.678449    1.268789
C        -0.905295   -0.840313   -1.259584
H        -0.727150   -0.230272   -2.144960
H        -1.920324   -1.234271   -1.312307
H        -0.211601   -1.679011   -1.268054
H        -2.720560    0.830151   -0.000142
