12
0 2
C        -0.000000    1.769926   -0.000000
C        -0.000000    1.077719    1.217263
C        -0.000000   -0.287694    1.232815
C        -0.000000    1.077719   -1.217263
C        -0.000000   -0.287694   -1.232815
C         0.000001   -1.040452    0.000000
H        -0.000000    2.851638   -0.000000
H        -0.000000    1.633720    2.145508
H        -0.000000   -0.854171    2.154039
H        -0.000000    1.633720   -2.145508
H        -0.000000   -0.854171   -2.154039
O         0.000001   -2.283486    0.000000
