7
0 1
N         1.228438    0.014760    0.092450
O        -0.000067    0.819927    0.000242
N        -1.228427    0.014697   -0.092436
O         2.130914    0.571046   -0.422871
O         1.144193   -0.993795    0.700576
O        -2.131125    0.570902    0.422593
O        -1.143924   -0.993854   -0.700551
