10
0 2
O         1.781090   -0.134392    0.000001
O         0.664144   -0.809987    0.000000
C        -0.493078   -0.030612   -0.000000
C        -1.621691   -0.721349   -0.000000
C        -0.315571    1.439793   -0.000000
H        -1.292381    1.916893   -0.000000
H         0.246410    1.762879   -0.875787
H         0.246410    1.762879    0.875787
H        -1.607322   -1.801587   -0.000000
H        -2.572945   -0.213021   -0.000001
