11
0 1
C         1.185562    0.479324   -0.000003
O         0.153061   -0.526602   -0.000006
N        -1.137161   -0.025878   -0.000004
O        -1.269136    1.167112    0.000001
O        -1.971904   -0.876246    0.000006
C         2.489717   -0.274658    0.000004
H         1.071425    1.104269    0.884494
H         1.071433    1.104269   -0.884500
H         2.577449   -0.903520    0.884689
H         3.314531    0.437536    0.000008
H         2.577458   -0.903521   -0.884679
