8
0 2
O         1.247591   -0.363310   -0.000013
C         0.177826    0.477334   -0.000008
C        -1.180511   -0.194528   -0.000000
H         0.301117    1.154035   -0.864617
H         0.301186    1.153814    0.864777
H        -1.293341   -0.822930   -0.883143
H        -1.980319    0.547816    0.000091
H        -1.293261   -0.823083    0.883043
