16
0 1
O         1.005435    0.577104   -0.432392
N         2.331682    0.370870   -0.172238
O         2.572656   -0.622541    0.407832
C         0.091477   -0.431430    0.027947
C        -1.309515    0.013158   -0.338159
C        -2.291947   -1.102575   -0.004306
H        -2.048156   -2.026194   -0.531057
H        -3.306090   -0.816282   -0.282413
H        -2.291254   -1.315726    1.067072
C        -1.685362    1.312826    0.360175
H        -1.326810    0.179386   -1.419046
H        -1.685317    1.180329    1.444911
H        -2.684661    1.633626    0.064858
H        -0.986582    2.111576    0.117069
H         0.204174   -0.549268    1.108351
H         0.350269   -1.381912   -0.441542
