13
0 1
O        -0.442927    0.000006    0.422950
N        -1.527162   -0.000002   -0.431639
O        -2.536062    0.000002    0.154953
C         0.806669    0.000000   -0.301239
C         1.554589    1.264818    0.057045
H         1.757244    1.297966    1.127946
H         0.974380    2.146623   -0.211716
C         1.554580   -1.264823    0.057047
H         0.552132   -0.000000   -1.362652
H         1.757234   -1.297971    1.127948
H         2.505824   -1.302051   -0.474338
H         0.974365   -2.146624   -0.211713
H         2.505833    1.302039   -0.474341
