17
0 2
C         0.031589    1.202683   -0.004054
C        -1.348136    1.197024   -0.010268
C        -2.057731    0.000002   -0.010632
C        -1.348137   -1.197022   -0.010265
C         0.031588   -1.202682   -0.004051
C         0.723950    0.000000   -0.000117
H         0.581342    2.134524   -0.005280
H        -1.887904    2.135278   -0.017354
C         2.187282    0.000000    0.003351
O         2.904624   -1.026794    0.005318
O         2.904625    1.026792    0.005319
H         0.581340   -2.134523   -0.005276
C        -3.556506   -0.000001    0.014373
H        -3.961505    0.883649   -0.476758
H        -3.921261   -0.000097    1.043819
H        -3.961504   -0.883562   -0.476919
H        -1.887905   -2.135276   -0.017350
