14
0 2
O        -2.260500    0.000665   -0.741886
C        -1.229676    0.000011   -0.021309
O        -1.534436   -0.001044    1.184429
C         0.154756    0.000455   -0.548166
C         2.221212   -0.000060    0.081928
C         1.121345   -1.075920    0.008299
H         1.291945   -1.947425   -0.619139
H         0.806473   -1.401397    0.998413
C         1.121334    1.075911    0.010098
H         2.844652    0.000691   -0.811350
H         0.806459    1.399729    1.000754
H         1.291924    1.948465   -0.615883
H         0.119515    0.001367   -1.636895
H         2.864695   -0.000789    0.958653
