14
0 2
O         0.000000    0.265316    1.421246
C        -0.000000   -0.024824    0.077039
C         0.000001    1.374654   -0.577589
H         0.000001    1.244365   -1.659688
H         0.887005    1.933073   -0.285395
H        -0.887002    1.933074   -0.285395
C         1.265513   -0.787510   -0.310213
H         1.295219   -0.971903   -1.384708
H         1.294175   -1.749364    0.201873
H         2.149662   -0.219688   -0.023985
C        -1.265514   -0.787509   -0.310213
H        -1.294178   -1.749362    0.201873
H        -1.295220   -0.971901   -1.384708
H        -2.149662   -0.219685   -0.023985
