17
0 2
O         2.851843    0.304600    0.592459
C         1.791575    0.046839   -0.027432
O         1.918501   -0.994311   -0.697395
C         0.565456    0.890959    0.026740
C        -0.687781    0.152575   -0.393389
H         0.748199    1.749881   -0.626653
H         0.477574    1.285652    1.041518
C        -1.264271   -0.935460    0.536638
C        -2.034939    0.896353   -0.289962
H        -0.558153   -0.250743   -1.398320
C        -2.676167   -0.421369    0.190564
H        -2.427352    1.360783   -1.193050
H        -2.013326    1.642568    0.506064
H        -3.403897   -0.362199    0.997094
H        -3.115647   -0.979162   -0.635512
H        -1.011435   -0.737292    1.579881
H        -1.021940   -1.971186    0.309514
