12
0 1
O         2.344610   -0.068194    0.146570
O         1.113383   -0.768537    0.070194
H         2.033624    0.861212    0.064121
C         0.082890    0.073276   -0.109000
O         0.244340    1.264595   -0.158481
C        -1.209682   -0.669576   -0.253197
C        -2.394210    0.133688    0.258387
H        -1.119074   -1.632743    0.247806
H        -1.322730   -0.882199   -1.319614
H        -2.311300    0.316736    1.329262
H        -3.321067   -0.408246    0.077254
H        -2.452110    1.098004   -0.242222
