22
0 1
C         1.611530   -0.084025    0.313487
O         0.533642    0.474664   -0.434483
O        -0.533643   -0.474664   -0.434483
C        -1.611529    0.084025    0.313487
C         2.602278    1.049992    0.464962
C        -2.602279   -1.049991    0.464962
H         2.150521    1.895892    0.981334
H         2.946711    1.384974   -0.513974
H        -2.150522   -1.895892    0.981333
H        -2.946712   -1.384973   -0.513974
C         2.197134   -1.293089   -0.385571
H         1.434741   -2.054687   -0.534565
H         3.003352   -1.721809    0.211319
H         2.598810   -1.007254   -1.358697
C        -2.197133    1.293090   -0.385571
H        -1.434739    2.054686   -0.534564
H        -3.003351    1.721810    0.211319
H        -2.598810    1.007255   -1.358696
H        -1.225421    0.374347    1.296877
H        -3.467278   -0.713996    1.036305
H         1.225422   -0.374347    1.296877
H         3.467277    0.713997    1.036305
