15
0 1
O         0.848272    0.194083   -0.743825
O         0.000002    1.015477   -0.000010
S         2.339207   -0.052412    0.000242
S        -2.339205   -0.052412   -0.000242
F         3.756536   -0.309808    0.613534
F         2.974722    0.071255   -1.428026
F         2.159125   -1.596547   -0.226916
F         1.696593   -0.186565    1.424415
F         2.527381    1.490997    0.228048
F        -1.696592   -0.186617   -1.424410
F        -2.159132   -1.596540    0.226969
F        -3.756535   -0.309824   -0.613524
F        -2.974722    0.071306    1.428020
F        -2.527377    1.490989   -0.228101
O        -0.848274    0.194110    0.743826
