21
0 1
C         2.934541   -0.254340    0.352646
O         2.438558   -0.411376    1.418370
O         2.251327   -0.373443   -0.836015
O         0.892538   -0.666043   -0.618822
C         0.182116    0.477960   -0.343935
O         0.680300    1.557491   -0.286589
C         4.348738    0.118819    0.042039
H         4.984285   -0.207106    0.860130
H         4.401392    1.204831   -0.039033
H         4.679010   -0.312321   -0.899830
C        -1.249834    0.155655   -0.147298
C        -1.737796   -1.145647   -0.168838
C        -3.087202   -1.373305    0.026907
C        -3.947778   -0.309480    0.243090
C        -3.460745    0.987697    0.266153
C        -2.113347    1.221284    0.072539
H        -1.064472   -1.973753   -0.332280
H        -3.468540   -2.385184    0.012789
H        -5.003128   -0.492509    0.396221
H        -4.132914    1.817483    0.436997
H        -1.709571    2.223664    0.089628
