24
0 1
C         0.268426    0.476401   -0.436929
O        -0.232057    1.556302   -0.414519
O        -0.422173   -0.668042   -0.753794
O        -1.764153   -0.376360   -1.060306
C        -2.524402   -0.251800    0.079838
O        -2.099174   -0.407969    1.176336
C         1.684943    0.155212   -0.147063
C         2.173766   -1.145866   -0.134288
C         3.507770   -1.372513    0.148836
C         4.352246   -0.307869    0.417986
C         3.864273    0.989104    0.406786
C         2.532113    1.221631    0.125930
H         2.127705    2.223840    0.114637
H         1.512658   -1.974554   -0.339340
H         3.889565   -2.384248    0.161483
H         5.395554   -0.490086    0.639404
H         4.523708    1.819581    0.618946
C        -3.921468    0.116508   -0.328625
C        -4.900339    0.015991    0.826288
H        -4.214326   -0.514581   -1.168825
H        -3.870640    1.135840   -0.718498
H        -4.961799   -1.004566    1.201674
H        -5.894120    0.323186    0.503596
H        -4.591816    0.653352    1.652631
