12
0 1
O         0.908901   -0.732757   -0.844011
O         2.137934   -0.910541   -0.189235
C         2.787406    0.279293   -0.110079
C        -0.035934   -0.350681    0.065313
O        -1.166739   -0.296799   -0.664088
O         0.122762   -0.127546    1.208761
O         2.427069    1.338030   -0.451425
F         3.942728   -0.010969    0.442802
C        -2.333532    0.093675   -0.032039
F        -2.657078   -0.742711    0.938306
F        -3.272347    0.073567   -0.955338
F        -2.229641    1.313800    0.460987
