16
0 1
C         2.605355    0.451347   -0.239265
C         1.407696   -0.060493    0.523761
H         2.996862   -0.317284   -0.904650
H         3.391855    0.737287    0.458980
H         2.342157    1.324080   -0.836525
C        -1.987492    1.090648    0.104768
C        -1.840823   -0.371267   -0.253453
H        -2.921982    1.483083   -0.298999
H        -1.167664    1.672770   -0.313379
H        -1.997699    1.223778    1.186725
O         0.435008   -0.415135   -0.439316
H         1.001360    0.703510    1.193154
H         1.662333   -0.940494    1.120635
O        -0.674753   -0.967535    0.281360
H        -1.852481   -0.518255   -1.336874
H        -2.645186   -0.968521    0.179721
