26
0 1
O        -0.704824    1.468294   -0.055339
O         0.704825    1.468292    0.055327
C         1.268758    0.501389   -0.737689
C        -1.268759    0.501399    0.737684
O        -0.641089   -0.250985    1.410212
O         0.641085   -0.250999   -1.410209
C         3.326980   -0.798125   -0.191471
C        -3.326980   -0.798122    0.191480
C        -2.762926    0.561879    0.599282
C         2.762925    0.561869   -0.599294
H        -3.150647    0.856591    1.576212
H        -3.037574    1.333331   -0.119253
H         3.037577    1.333333    0.119228
H         3.150643    0.856565   -1.576230
C        -2.910858   -1.212311   -1.211547
H        -4.414935   -0.748263    0.261537
H        -2.996102   -1.541739    0.917785
H        -3.266927   -0.495029   -1.953419
H        -3.324474   -2.187992   -1.466038
H        -1.825957   -1.272379   -1.306658
C         2.910862   -1.212292    1.211563
H         4.414935   -0.748268   -0.261532
H         2.996100   -1.541754   -0.917764
H         3.266933   -0.494998    1.953422
H         3.324480   -2.187969    1.466069
H         1.825962   -1.272359    1.306679
