8
0 2
O         2.449536   -0.768376   -0.000026
C         1.399805   -0.084061   -0.000012
O         1.537681    1.127440    0.000013
C        -0.956456   -0.056390    0.000004
F        -1.914008   -0.958586   -0.000004
F        -1.068450    0.702313   -1.076974
F        -1.068435    0.702278    1.077008
O         0.237525   -0.755481   -0.000015
