34
0 1
O         0.076482    0.179460    0.688916
O         0.863364   -0.329384   -0.400267
C         2.246598   -0.128442   -0.081205
C         2.559528    1.355740    0.030068
H         3.626744    1.502031    0.198854
H         2.016025    1.802637    0.859646
H         2.281410    1.872268   -0.888484
C         2.599236   -0.871613    1.198539
H         3.668970   -0.794970    1.395528
H         2.337687   -1.925619    1.105785
H         2.060920   -0.455539    2.047380
C         2.945163   -0.745404   -1.281368
H         2.683194   -1.798603   -1.376282
H         4.025351   -0.665072   -1.163002
H         2.657867   -0.231509   -2.198333
C        -1.206896    0.568949    0.175824
C        -1.897550    1.076901    1.432070
H        -1.946477    0.303487    2.195734
H        -2.908779    1.407713    1.202971
H        -1.346474    1.923951    1.839112
C        -1.033552    1.700982   -0.827724
H        -0.400828    2.476452   -0.397314
H        -1.993772    2.148764   -1.077617
H        -0.567954    1.343830   -1.744228
C        -1.901992   -0.657174   -0.454615
C        -3.300990   -0.348215   -0.978177
H        -3.981527   -0.071587   -0.171043
H        -3.717500   -1.232900   -1.461035
H        -3.303150    0.454988   -1.713788
C        -1.937858   -1.856239    0.484971
H        -1.281620   -0.930555   -1.310292
H        -2.620661   -1.692833    1.320728
H        -0.950288   -2.071369    0.887512
H        -2.288028   -2.739086   -0.051315
