34
0 1
O        -0.683454   -1.689010   -0.177327
O         0.683454   -1.689011    0.177325
C         1.370189   -0.697303   -0.479479
C        -1.370189   -0.697304    0.479478
O        -0.869802    0.025353    1.281262
O         0.869802    0.025355   -1.281261
C        -2.776214   -0.672253   -0.046204
C        -3.469706    1.557012   -0.740275
C        -2.828396    0.281016   -1.275525
H        -3.467637   -0.167762   -2.036708
H        -1.847599    0.436620   -1.721908
C         2.776214   -0.672253    0.046203
C         4.505875    1.036512   -0.249021
C         2.828397    0.281014    1.275525
C        -4.505876    1.036510    0.249022
H        -3.895781    2.173902   -1.531039
C         3.469706    1.557011    0.740277
H         2.723302    2.157499    0.215695
H         3.895780    2.173900    1.531042
H         3.467639   -0.167765    2.036707
H        -3.038003   -1.684538   -0.347861
H         1.847600    0.436616    1.721910
H        -2.723303    2.157500   -0.215691
C        -3.769897   -0.090082    0.980300
H        -3.211585    0.317680    1.822036
H        -4.442304   -0.853503    1.368197
H        -5.366298    0.638913   -0.295242
H        -4.876032    1.801043    0.931196
C         3.769897   -0.090080   -0.980300
H         3.038003   -1.684539    0.347857
H         3.211584    0.317682   -1.822036
H         4.442305   -0.853500   -1.368198
H         5.366298    0.638915    0.295242
H         4.876030    1.801046   -0.931195
