20
0 2
O        -1.065450    0.284428    1.400895
C        -0.941710   -0.048490    0.072925
C        -1.994239   -1.091661   -0.303759
H        -1.812244   -2.020502    0.236909
H        -1.959172   -1.305761   -1.372411
H        -2.989004   -0.731691   -0.046016
C        -1.250010    1.279775   -0.654534
H        -2.279735    1.577378   -0.469344
H        -1.107487    1.123537   -1.724061
H        -0.587833    2.074379   -0.320694
C         0.471929   -0.557365   -0.246550
C         1.601183    0.409159    0.070937
H         0.508856   -0.843845   -1.301778
H         0.618136   -1.478056    0.325977
C         2.969919   -0.240840   -0.062137
H         1.466154    0.786525    1.086222
H         1.549910    1.274631   -0.593481
H         3.072428   -1.082507    0.625250
H         3.769365    0.467003    0.158274
H         3.131807   -0.619980   -1.073296
