17
0 2
O         2.273033   -1.480861    0.000038
C         1.655858   -0.390312    0.000017
O         2.477499    0.556621   -0.000027
C         0.193961   -0.269936    0.000003
C        -0.528089   -1.458697    0.000007
C        -0.454687    0.970452   -0.000008
C        -1.843278    0.962533   -0.000012
C        -1.906578   -1.439593    0.000001
C        -2.562096   -0.219552   -0.000008
H        -3.643701   -0.186558   -0.000011
H        -2.370318    1.907775   -0.000018
H         0.012275   -2.395941    0.000016
H        -2.465820   -2.364672    0.000005
C         0.283296    2.276093   -0.000009
H         0.926909    2.370708   -0.874436
H         0.926955    2.370684    0.874387
H        -0.420878    3.105991    0.000021
