28
0 1
O         0.685671    0.169979    1.428140
O        -0.685671   -0.169980    1.428140
C        -1.366133    0.493728    0.437297
C         1.366133   -0.493728    0.437297
O         0.861853   -1.281656   -0.296820
O        -0.861853    1.281656   -0.296819
C         2.778485   -0.010810    0.426728
C         4.404063    0.350565   -0.943703
C         3.090377    1.090089   -0.624033
H         3.147364    2.111161   -0.255626
H         2.383747    1.050090   -1.451113
C        -2.778485    0.010809    0.426728
C        -3.823816    0.905344   -0.262964
C        -3.090378   -1.090088   -0.624035
H        -3.077050   -0.301999    1.425448
C         3.823816   -0.905344   -0.262965
H         5.245225    0.763157   -0.387730
H         3.339532   -1.571180   -0.974688
H         4.478262   -1.485269    0.384188
C        -4.404063   -0.350563   -0.943703
H        -3.339532    1.571181   -0.974686
H        -4.685583   -0.265743   -1.990988
H        -5.245225   -0.763156   -0.387731
H        -3.147364   -2.111161   -0.255629
H         3.077050    0.301997    1.425448
H        -2.383748   -1.050088   -1.451115
H        -4.478262    1.485268    0.384190
H         4.685583    0.265746   -1.990988
