19
0 1
O         2.780753    0.235938    0.076531
O         1.498001   -0.390166    0.049085
H         3.148383   -0.043666   -0.772599
C         0.532775    0.638396   -0.072494
C        -0.856896    0.012463   -0.003390
C        -1.039757   -0.990763   -1.141324
H        -0.896658   -0.511709   -2.112002
H        -2.047213   -1.409138   -1.119967
H        -0.329288   -1.812362   -1.061535
C        -1.869471    1.146573   -0.151426
H        -1.754302    1.660772   -1.107325
H        -1.759475    1.883573    0.645994
H        -2.885835    0.753429   -0.104470
C        -1.053856   -0.680200    1.344098
H        -0.334296   -1.485559    1.482613
H        -2.057925   -1.102282    1.410003
H        -0.931443    0.025875    2.167431
H         0.670356    1.159611   -1.026475
H         0.670900    1.356462    0.740618
