8
0 2
O        -1.247591   -0.363310   -0.000012
C        -0.177826    0.477334    0.000001
C         1.180511   -0.194528    0.000001
H        -0.301168    1.153869    0.864742
H        -0.301135    1.153980   -0.864652
H         1.293282   -0.823048    0.883066
H         1.980319    0.547816    0.000049
H         1.293320   -0.822965   -0.883119
