11
0 2
O        -1.104685    1.178945    0.000022
C        -0.856061   -0.040266   -0.000002
O        -1.921693   -0.712229   -0.000007
C         0.476632   -0.638824   -0.000012
C         1.571478    0.091582   -0.739964
C         1.571479    0.091559    0.739962
H         0.480547   -1.719306   -0.000029
H         2.288024   -0.523239    1.264040
H         1.286632    1.003833    1.243932
H         1.286631    1.003872   -1.243905
H         2.288024   -0.523199   -1.264063
