31
0 1
O        -0.289279   -0.103858    0.601797
O         0.617311    0.336502   -0.421548
C         1.955522    0.086170    0.028852
C         2.223390    0.852712    1.315265
H         3.265746    0.735347    1.613175
H         1.590388    0.487315    2.121023
H         2.020695    1.913736    1.170256
C         2.188605   -1.405941    0.208622
H         3.227417   -1.592497    0.482269
H         1.974992   -1.938647   -0.717901
H         1.549583   -1.803301    0.994134
C         2.787750    0.635145   -1.117861
H         2.562507    0.105654   -2.043268
H         3.847890    0.512704   -0.897909
H         2.583433    1.695053   -1.265186
C        -1.518951   -0.488184   -0.027683
C        -1.299144   -1.687563   -0.936883
H        -0.629029   -1.431921   -1.754893
H        -2.248750   -2.016299   -1.360137
H        -0.866545   -2.516222   -0.376546
C        -2.382290   -0.870462    1.163822
H        -1.946445   -1.719619    1.689246
H        -3.379276   -1.149504    0.823433
H        -2.472044   -0.044055    1.865786
C        -2.105535    0.683648   -0.819625
C        -2.238989    1.981735   -0.040618
H        -3.080207    0.368674   -1.200950
H        -1.470641    0.849936   -1.690219
H        -2.947561    1.896142    0.783435
H        -2.591975    2.781067   -0.692601
H        -1.276582    2.281725    0.371516
