8
0 2
C        -1.180511   -0.194528   -0.000000
C         0.177826    0.477334   -0.000010
H        -1.293352   -0.822909   -0.883156
H        -1.980319    0.547816    0.000116
H        -1.293250   -0.823104    0.883029
O         1.247591   -0.363310   -0.000016
H         0.301196    1.153784    0.864799
H         0.301107    1.154065   -0.864596
