21
0 1
C        -0.665318    0.475406    0.458512
O        -0.156690    1.551051    0.438009
O         0.019578   -0.669785    0.804126
O         1.348272   -0.367186    1.150873
C         2.135652   -0.226225    0.035671
O         1.778448   -0.410187   -1.074503
C        -2.072364    0.152577    0.137266
C        -2.565516   -1.147184    0.141291
C        -3.891969   -1.375335   -0.173264
C        -4.723907   -0.313934   -0.490278
C        -4.231468    0.981428   -0.495670
C        -2.906874    1.216042   -0.183495
H        -2.499333    2.217025   -0.184334
H        -1.914572   -1.973822    0.383870
H        -4.277643   -2.385589   -0.173071
H        -5.761375   -0.497600   -0.736352
H        -4.881409    1.808841   -0.745385
C         3.484599    0.233883    0.532720
Cl         4.757998   -0.059759   -0.650129
H         3.735784   -0.267967    1.462468
H         3.418704    1.303926    0.720445
