10
0 2
O        -1.730508   -0.588135   -0.000003
C        -0.610862   -0.017883    0.000004
O        -0.747625    1.217398   -0.000004
C         1.894751    0.182372   -0.000010
H         2.813861   -0.401215    0.000003
H         1.899066    0.824121    0.879620
H         1.899063    0.824080   -0.879669
C         0.689927   -0.744152    0.000014
H         0.685091   -1.401534    0.872474
H         0.685086   -1.401574   -0.872416
