22
0 1
O        -0.639557   -1.186148    0.296213
O         0.639557   -1.186145   -0.296227
C         1.445608   -0.224212    0.262198
C        -1.445605   -0.224203   -0.262195
O        -1.096517    0.517709   -1.124635
O         1.096520    0.517688    1.124647
C        -2.767027   -0.289708    0.385519
C        -3.484066    1.021501    0.579504
C        -3.957279    0.079191   -0.461663
H        -2.955087    1.905191    0.254183
H        -4.056953    1.128201    1.488721
H        -4.865772   -0.478567   -0.288357
H        -3.750059    0.326849   -1.492479
H        -2.883311   -1.054803    1.137670
C         2.767026   -0.289702   -0.385525
C         3.484060    1.021512   -0.579492
C         3.957281    0.079185    0.461657
H         2.883308   -1.054784   -1.137690
H         4.865775   -0.478567    0.288337
H         3.750066    0.326826    1.492478
H         2.955081    1.905195   -0.254153
H         4.056943    1.128229   -1.488710
