34
0 1
C         3.350076    0.648219    0.827369
C         4.713426    0.866498    0.795117
C         5.539908    0.128791   -0.044162
C         4.962620   -0.843352   -0.854320
C         3.602150   -1.068851   -0.831713
C         2.786797   -0.324763    0.011269
H         2.723537    1.235096    1.482453
H         5.145782    1.625716    1.434427
C         1.337630   -0.615163   -0.014900
O         0.778195   -1.381687   -0.732995
O         0.688871    0.133737    0.940823
O        -0.688872   -0.133727    0.940822
C        -1.337632    0.615172   -0.014901
O        -0.778198    1.381695   -0.732999
C        -2.786798    0.324767    0.011263
C        -3.350076   -0.648214    0.827366
C        -3.602151    1.068848   -0.831724
C        -4.962620    0.843343   -0.854335
C        -4.713425   -0.866499    0.795110
C        -5.539907   -0.128798   -0.044175
H        -2.723537   -1.235086    1.482455
H        -5.145780   -1.625715    1.434422
H         3.150673   -1.821767   -1.462351
H        -3.150675    1.821763   -1.462364
C         7.014786    0.393132   -0.097193
H         7.377417    0.810801    0.840967
H         7.247589    1.109147   -0.888381
H         7.573337   -0.518381   -0.306786
C        -7.014784   -0.393145   -0.097210
H        -7.377415   -0.810819    0.840946
H        -7.247582   -1.109158   -0.888402
H        -7.573338    0.518366   -0.306801
H         5.591021   -1.431201   -1.511472
H        -5.591020    1.431188   -1.511492
