10
0 1
C         0.694511   -1.592054    0.000001
O         0.694511   -0.187692   -0.000002
H         0.204342   -1.984725   -0.893864
H         0.204345   -1.984720    0.893870
H         1.746112   -1.874892    0.000001
O        -0.694511    0.187692   -0.000002
C        -0.694511    1.592054    0.000001
H        -1.746112    1.874892    0.000001
H        -0.204342    1.984725   -0.893864
H        -0.204345    1.984720    0.893870
