30
0 1
C        -3.484855   -0.386535   -0.047288
O        -3.019132   -1.208976   -0.766928
O        -2.773476    0.292760    0.906497
O        -1.407782   -0.070464    0.906170
C        -0.719134    0.591325   -0.086850
O        -1.240916    1.362185   -0.827572
C        -4.896122    0.108129   -0.022164
H        -5.547104   -0.671512   -0.406649
H        -4.959490    0.978825   -0.675369
H        -5.198497    0.406387    0.978583
C         0.717045    0.220933   -0.027616
C         1.653166    1.264990   -0.016789
C         2.996750    0.942035    0.018352
C         3.434203   -0.375675    0.017538
C         2.486897   -1.382672   -0.009241
C         1.124127   -1.114904   -0.022445
H         3.725795    1.743257    0.041962
H         2.811981   -2.415831   -0.021430
C         0.161607   -2.268624   -0.047628
H         0.664823   -3.162954   -0.411003
H        -0.704975   -2.076832   -0.676121
H        -0.215882   -2.479116    0.953695
C         4.900856   -0.689223    0.028086
H         5.367976   -0.390253   -0.912084
H         5.078024   -1.754441    0.166163
H         5.410990   -0.152155    0.828498
C         1.241644    2.709496   -0.033062
H         0.483931    2.924944    0.720460
H         0.813194    2.983149   -0.996156
H         2.102583    3.346843    0.158764
