14
0 2
O         2.260500    0.000138   -0.741880
C         1.229676   -0.000008   -0.021311
O         1.534434   -0.000209    1.184432
C        -0.154757    0.000088   -0.548169
C        -1.121345   -1.075917    0.009011
C        -1.121333    1.075916    0.009372
H        -0.119505    0.000271   -1.636898
C        -2.221210   -0.000007    0.081940
H        -0.806473   -1.400757    0.999334
H        -2.864672   -0.000151    0.958682
H        -2.844675    0.000147   -0.811321
H        -1.291932    1.948041   -0.617206
H        -0.806458    1.400420    0.999804
H        -1.291953   -1.947829   -0.617860
