17
0 2
O         2.188454    0.919821   -0.106563
C         1.421843   -0.061795    0.024433
O         1.916200   -1.074505   -0.510317
C         0.115710   -0.014429    0.751737
C        -2.063278   -0.600596   -0.217069
C        -0.793845   -1.212567    0.397906
H        -1.012224   -1.821080    1.272924
H        -0.288070   -1.862052   -0.316769
C        -1.627862    0.776734   -0.709619
H        -2.832117   -0.484364    0.549677
H         0.389706   -0.008513    1.808918
H        -2.483426   -1.224634   -1.004368
C        -0.681441    1.252293    0.387258
H        -0.036193    2.077687    0.090255
H        -1.253583    1.579053    1.256605
H        -2.461527    1.458040   -0.874860
H        -1.086554    0.685494   -1.655213
