14
0 2
O        -1.957254   -0.392360   -0.563452
C        -0.980728   -0.425876    0.378358
C         0.294619   -1.055180   -0.154318
C         1.209800   -0.011557   -0.588946
C         0.589004    1.338874   -0.363662
C        -0.555898    1.067820    0.616766
H         0.217351    1.722245   -1.315076
H         1.300173    2.062231    0.036421
H        -0.215518    1.130833    1.647136
H        -1.404792    1.734936    0.491810
H        -1.332620   -0.865620    1.319937
O         1.443653   -0.739309    0.619344
H         0.260888   -2.047982   -0.585808
H         1.942550   -0.167782   -1.370748
