27
0 1
O        -0.010181   -1.258253    0.228315
O         0.504731   -0.164550   -0.546814
C         1.814960    0.168665   -0.066828
C         2.742234   -1.026873   -0.222781
H         3.758901   -0.755676    0.063619
H         2.750445   -1.364814   -1.258856
H         2.414755   -1.851841    0.406586
C         2.216162    1.299583   -0.999251
H         3.219307    1.645746   -0.751898
H         1.526089    2.137378   -0.902801
H         2.210882    0.961179   -2.034801
C         1.757014    0.645998    1.375468
H         1.068410    1.484729    1.470435
H         2.746369    0.968413    1.701310
H         1.424304   -0.154378    2.033161
C        -1.404058   -1.024767    0.417722
C        -1.703277    0.189315    1.250395
C        -2.291126    1.136240    0.538787
C        -2.510401    0.731081   -0.889874
C        -2.176503   -0.768557   -0.886074
H        -1.844848    1.296402   -1.547184
H        -3.530636    0.927779   -1.223573
H        -3.096501   -1.352852   -0.873037
H        -1.591770   -1.083763   -1.746733
H        -1.701346   -1.957997    0.900206
H        -1.414786    0.265451    2.289405
H        -2.566003    2.112564    0.916770
