11
0 2
O        -1.473238   -0.674791   -0.194579
C        -0.840731    0.437149    0.269053
C         0.566562    0.656298   -0.260296
H        -0.834573    0.329884    1.371628
H        -1.491783    1.310927    0.098345
C         1.509773   -0.477110    0.107028
H         0.938875    1.607456    0.129992
H         0.510583    0.763046   -1.346128
H         1.627369   -0.555563    1.189945
H         2.498793   -0.326561   -0.324993
H         1.123012   -1.428885   -0.256869
