7
0 2
C         0.099996    0.000012   -0.007644
O         0.808827    1.028089    0.001493
O         0.808761   -1.028124    0.001493
C        -1.383195    0.000039   -0.003099
H        -1.757123    0.896138   -0.494435
H        -1.727265   -0.001419    1.031842
H        -1.757126   -0.894739   -0.496848
