42
0 1
C         1.729592   -1.452784    0.341664
C         2.266336   -2.302023   -0.799248
H         2.061043   -3.349791   -0.585963
H         3.344314   -2.173610   -0.890413
H         1.799140   -2.049185   -1.746801
C         2.429104   -1.840887    1.640835
H         2.355517   -2.916103    1.798144
H         1.980769   -1.331970    2.491738
H         3.479419   -1.557996    1.588828
O         0.366027   -1.802301    0.618561
O        -0.366024   -1.802301   -0.618561
C        -1.729590   -1.452787   -0.341665
C        -2.266332   -2.302026    0.799248
H        -2.061037   -3.349795    0.585963
H        -3.344310   -2.173616    0.890413
H        -1.799136   -2.049188    1.746801
C        -2.429101   -1.840891   -1.640835
H        -2.355512   -2.916107   -1.798144
H        -1.980767   -1.331973   -2.491738
H        -3.479417   -1.558002   -1.588828
C        -1.848713    0.047826   -0.114143
C        -1.308590    0.913121   -1.060260
C        -2.501599    0.593361    0.979639
C        -2.620332    1.968487    1.123123
C        -1.429455    2.280868   -0.925059
C        -2.090461    2.815981    0.169454
H        -3.133157    2.373780    1.985689
H        -2.183551    3.888343    0.279816
H        -2.926861   -0.049801    1.736344
H        -0.762536    0.507264   -1.900320
H        -0.991381    2.933750   -1.667851
C         1.848713    0.047829    0.114143
C         2.501599    0.593365   -0.979638
C         2.620329    1.968492   -1.123122
C         2.090456    2.815984   -0.169454
C         1.429449    2.280870    0.925059
C         1.308587    0.913123    1.060259
H         2.926863   -0.049796   -1.736343
H         3.133155    2.373786   -1.985687
H         0.762532    0.507265    1.900319
H         2.183544    3.888347   -0.279816
H         0.991373    2.933751    1.667849
