14
0 2
O        -2.029374   -0.746706   -0.259131
C        -1.494130    0.410415    0.217642
C        -0.061400    0.688219   -0.198035
H        -2.175425    1.226523   -0.082704
C         0.915248   -0.349620    0.333395
H         0.221427    1.685395    0.153823
C         2.341873   -0.114843   -0.135361
H         0.578567   -1.339814    0.018224
H         0.882139   -0.346862    1.427410
H         2.406507   -0.149920   -1.224403
H         3.021024   -0.869592    0.261710
H         2.707309    0.862859    0.185108
H        -0.016812    0.714649   -1.290258
H        -1.599280    0.385379    1.318294
