8
0 2
C        -0.956459   -0.056396   -0.000003
O         0.237534   -0.755464   -0.000005
F        -1.068452    0.702294    1.076982
F        -1.914015   -0.958592   -0.000003
F        -1.068455    0.702297   -1.076985
C         1.399817   -0.084066   -0.000005
O         2.449543   -0.768379    0.000008
O         1.537691    1.127441    0.000009
