17
0 2
O         3.398938    0.231701   -0.129155
C         2.187277   -0.046983   -0.121035
O         1.900315   -0.855958   -1.033082
C        -0.225194    0.254665    0.462835
C        -0.992922    1.289666   -0.050879
C        -0.787134   -1.010516    0.574032
C        -2.093964   -1.235557    0.180505
C        -2.301660    1.067679   -0.442575
C        -2.854503   -0.196294   -0.328326
H        -0.563879    2.279647   -0.144188
H        -2.890508    1.884379   -0.838108
H        -0.196308   -1.827054    0.969596
H        -2.519525   -2.225882    0.271230
H        -3.877043   -0.371295   -0.634702
C         1.202325    0.492403    0.867955
H         1.430356    0.010519    1.821986
H         1.417528    1.553364    0.997014
