11
0 1
O        -0.867498    0.058500   -0.728400
O         0.000001    0.894453    0.000000
O         0.867499    0.058499    0.728401
C        -2.041621   -0.076581   -0.003183
F        -2.812336   -0.843811   -0.746940
F        -2.628319    1.091668    0.196035
F        -1.835891   -0.646338    1.171863
C         2.041621   -0.076581    0.003183
F         2.812336   -0.843813    0.746938
F         2.628320    1.091668   -0.196034
F         1.835889   -0.646336   -1.171864
