10
0 2
C        -0.610862   -0.017884   -0.000000
O        -0.747621    1.217397   -0.000002
O        -1.730510   -0.588132    0.000003
C         0.689926   -0.744155   -0.000003
C         1.894750    0.182372    0.000003
H         0.685090   -1.401551   -0.872453
H         0.685089   -1.401560    0.872439
H         1.899061    0.824106   -0.879638
H         2.813860   -0.401213   -0.000000
H         1.899059    0.824095    0.879651
