8
0 1
O        -0.614656   -0.341850    0.851039
O         0.614656    0.341738    0.851086
C         1.436717   -0.203009   -0.083577
C        -1.436716    0.203018   -0.083554
F        -2.568546   -0.447965    0.052963
O        -1.214029    1.059150   -0.847937
O         1.214032   -1.059045   -0.848068
F         2.568543    0.447965    0.053017
