10
0 1
C         1.618344   -0.001218   -0.004211
O         0.489103   -0.515601   -0.613116
F         2.498515   -0.980416   -0.056734
F         1.398975    0.340993    1.253763
F         2.081236    1.056112   -0.649229
O        -0.489103    0.515603   -0.613114
C        -1.618344    0.001218   -0.004211
F        -2.498515    0.980416   -0.056731
F        -1.398975   -0.340997    1.253762
F        -2.081236   -1.056110   -0.649233
