24
0 1
P        -0.787243   -1.839310   -0.246296
C         0.686702   -0.732152   -0.400595
C         1.311009   -0.201617    0.880703
H         0.409685    0.098846   -1.052692
H         1.424710   -1.307562   -0.964326
C         2.417950    0.824209    0.620935
C         3.511347    0.278940   -0.174873
N         4.354026   -0.175640   -0.801763
C        -1.976179   -0.876920    0.808295
H        -0.280455   -2.654875    0.791304
C        -3.003116   -0.072154    0.017611
H        -1.459041   -0.231844    1.518679
H        -2.509865   -1.620657    1.402100
C        -2.405729    0.988097   -0.913717
H        -3.687647    0.416507    0.713019
H        -3.601019   -0.742643   -0.601336
C        -1.496103    1.896503   -0.226241
H        -3.198364    1.576600   -1.376556
H        -1.851125    0.513350   -1.725590
N        -0.757158    2.571461    0.328886
H         2.829139    1.185988    1.564161
H         2.004382    1.690557    0.101850
H         1.710561   -1.032051    1.465456
H         0.564316    0.297258    1.495791
