16
0 1
P        -0.036184   -1.139340   -0.071479
C         1.337467   -0.027246   -0.618218
C         1.849241    1.006672    0.373161
H         1.004487    0.457290   -1.539050
H         2.147102   -0.695738   -0.920036
H         1.079095    1.733178    0.632023
H         2.693577    1.561339   -0.039909
H         2.181204    0.533114    1.298174
C        -1.256093    0.048225    0.654604
H         0.550760   -1.554722    1.149601
C        -1.930633    0.900608   -0.412812
H        -0.794357    0.680548    1.413065
H        -2.002189   -0.562657    1.167048
H        -1.216092    1.558718   -0.909596
H        -2.707477    1.531070    0.020891
H        -2.393247    0.278408   -1.180437
