36
0 1
P         0.007723   -1.416174   -0.173034
C         1.414999   -0.275825    0.223792
C         2.641163   -1.100290    0.619637
C        -1.455960   -0.286129   -0.324129
H        -0.245619   -1.845479    1.154516
C        -1.615039    0.763621    0.772784
C         3.850302   -0.214006    0.896727
H         2.881161   -1.796350   -0.190637
H         2.414202   -1.711192    1.496343
C         4.164385    0.683357   -0.293810
H         4.715777   -0.831480    1.145436
H         3.647662    0.408520    1.774274
C         2.949169    1.509107   -0.696695
H         4.472488    0.061216   -1.140507
H         5.007606    1.337721   -0.064182
C         1.736518    0.625323   -0.968303
H         3.175127    2.112513   -1.578244
H         2.707941    2.210806    0.108472
H         0.874818    1.247822   -1.218118
H         1.931694   -0.001374   -1.845312
H         1.146890    0.357604    1.073241
C        -2.863855    1.615888    0.566973
H        -0.736937    1.408823    0.816593
H        -1.677329    0.255052    1.740888
C        -2.721880   -1.140139   -0.439987
H        -1.323019    0.232050   -1.281057
C        -3.967395   -0.285914   -0.646945
H        -2.839661   -1.727598    0.477318
H        -2.614309   -1.857554   -1.255614
C        -4.116666    0.757409    0.452701
H        -4.852988   -0.923202   -0.689513
H        -3.898548    0.218870   -1.616058
H        -4.990762    1.384249    0.265596
H        -4.293540    0.250766    1.407247
H        -2.747452    2.205945   -0.348115
H        -2.965484    2.330472    1.386474
