7
0 1
P         0.660789    0.000000   -0.123777
H         0.933731    1.030110    0.806781
C        -1.181851    0.000000    0.026109
H         0.933731   -1.030110    0.806781
H        -1.575886    0.878510   -0.483751
H        -1.536420    0.000000    1.053947
H        -1.575886   -0.878510   -0.483751
