15
0 2
P         0.000000    0.613722    0.000025
C        -1.400871   -0.586958   -0.000013
C         1.400871   -0.586958   -0.000014
C         2.762678    0.095455   -0.000007
H         1.300140   -1.237034   -0.874498
H         1.300151   -1.237075    0.874442
H         2.886323    0.728650   -0.879389
H         3.570607   -0.637048   -0.000028
H         2.886334    0.728611    0.879402
C        -2.762678    0.095455   -0.000006
H        -1.300151   -1.237075    0.874442
H        -1.300140   -1.237034   -0.874497
H        -2.886334    0.728611    0.879404
H        -3.570607   -0.637048   -0.000027
H        -2.886324    0.728650   -0.879388
