10
0 2
C        -0.008847    0.537040   -0.000000
C        -0.008847   -0.197630   -1.287309
H        -0.784456   -0.970022   -1.306351
H         0.943307   -0.720656   -1.457442
C        -0.008847   -0.197630    1.287309
H         0.179528    1.602255   -0.000000
H        -0.784456   -0.970022    1.306351
H        -0.168990    0.464211    2.137792
H         0.943307   -0.720656    1.457442
H        -0.168990    0.464211   -2.137792
