19
0 1
C         2.394436   -0.506512    0.337196
S         1.465313    0.104158   -1.098536
C        -0.195058    0.030318   -0.478291
C        -0.798903   -1.190687   -0.200959
C        -2.098093   -1.235374    0.270368
C        -0.916363    1.202163   -0.297009
C        -2.224359    1.154320    0.157323
C        -2.815321   -0.062554    0.447973
H        -3.834464   -0.099356    0.808952
H        -2.557795   -2.190582    0.487332
H        -0.248339   -2.107439   -0.365353
H        -0.443902    2.151329   -0.509555
H        -2.778736    2.073602    0.292545
C         2.324854    0.397637    1.551287
H         3.418159   -0.594854   -0.028057
H         2.051118   -1.512981    0.574851
H         2.701671    1.392806    1.316942
H         2.921337   -0.014381    2.367486
H         1.298785    0.499461    1.904105
