7
0 1
S         0.090074   -0.600978    0.011478
C        -1.369716    0.433024    0.000875
H        -1.403206    1.040372   -0.901599
H        -1.427301    1.065241    0.885712
H        -2.220176   -0.250991    0.000140
O         1.283545    0.545197   -0.117808
H         1.559435    0.801308    0.769318
