16
0 1
C         1.296327    0.036057    0.435759
S         0.054723   -0.591914   -0.756295
S        -1.618365    0.495332   -0.357167
C        -2.406890   -0.446258    0.969254
H        -3.345397    0.061450    1.192055
H        -1.789863   -0.458363    1.864598
H        -2.614537   -1.462407    0.644128
C         1.644385    1.490301    0.189632
H         2.098559    1.614400   -0.794332
H         2.353948    1.839832    0.942749
H         0.758170    2.120844    0.240411
C         2.505903   -0.877619    0.313138
H         0.860729   -0.076738    1.429460
H         2.927950   -0.830586   -0.692369
H         2.250316   -1.914861    0.527729
H         3.280043   -0.563156    1.014255
