12
0 2
C        -0.000000    0.653706    1.210150
C         0.000000   -0.721509    1.207204
C        -0.000000    1.335151    0.000000
C        -0.000000    0.653706   -1.210150
C         0.000000   -0.721509   -1.207204
C        -0.000000   -1.445430    0.000000
H         0.000000   -1.269301    2.138939
H         0.000000    1.207520    2.137839
Cl         0.000000    3.060861   -0.000000
H         0.000000    1.207520   -2.137839
H         0.000000   -1.269301   -2.138939
S        -0.000000   -3.152235    0.000000
