28
0 1
C        -2.634277   -1.262691    0.420660
C        -1.293412   -1.538307    0.287129
C        -3.107486   -0.025361    0.020577
C        -2.264660    0.929749   -0.508873
C        -0.920296    0.645919   -0.642984
C        -0.416006   -0.590992   -0.248748
H        -0.910950   -2.499946    0.602305
H        -3.318864   -1.987919    0.832813
N        -4.529938    0.277639    0.164515
H        -2.666738    1.884768   -0.810620
H        -0.273003    1.401304   -1.058076
S         1.254936   -1.092282   -0.390353
C         2.141541    0.410293   -0.967742
C         3.517851   -0.013138   -1.380827
C         2.208466    1.521383    0.032769
H         1.610266    0.751664   -1.852799
C         2.852448    1.468426    1.201893
C         4.467206   -0.432111   -0.539399
C         4.414315   -0.435282    0.900978
C         3.702081    0.405942    1.671473
H         3.724619   -0.010531   -2.443516
H         5.387588   -0.802963   -0.976569
H         1.670028    2.428109   -0.214899
H         2.740854    2.314961    1.870023
H         5.093921   -1.116159    1.399429
H         3.852782    0.351518    2.743032
O        -5.246723   -0.583896    0.630703
O        -4.914094    1.373302   -0.190518
