18
0 1
C        -0.716241   -0.455192   -0.595289
C        -1.603072    0.095209    0.508795
C        -2.937309    0.593684   -0.027111
H        -1.090236    0.913151    1.019400
H        -1.762258   -0.683829    1.256689
H        -3.490226   -0.210553   -0.515921
H        -2.795980    1.390093   -0.760213
S         0.857326   -1.155261   -0.047494
H        -0.535237    0.303028   -1.358701
H        -1.215272   -1.286425   -1.096653
C         1.709502    0.290899    0.628583
C         1.999910    1.389746   -0.376563
H         2.639618   -0.118004    1.024254
H         1.151262    0.678012    1.480886
H         2.568047    1.002426   -1.221806
H         2.577118    2.189856    0.090506
H         1.081972    1.832619   -0.763182
H        -3.562761    0.987724    0.774152
