15
0 1
S        -0.755281   -0.715038   -0.304488
C         0.713968    0.123197    0.365692
C         1.901740   -0.800528    0.146929
H         2.806649   -0.351784    0.558836
H         2.067317   -0.970994   -0.918318
H         1.747833   -1.766686    0.626007
C         0.947389    1.489977   -0.254886
H         0.546887    0.236180    1.439722
H         0.104844    2.161020   -0.093025
H         1.106350    1.398250   -1.329985
H         1.831066    1.957744    0.184904
C        -2.070663    0.365319    0.278818
H        -2.046637    1.340203   -0.204037
H        -2.022864    0.489400    1.360319
H        -3.011543   -0.120521    0.028073
