9
0 1
S         1.097983   -0.232288    0.000001
C        -0.483434    0.668556   -0.000001
C        -1.624933   -0.330944   -0.000001
H        -0.532756    1.302536   -0.883486
H        -0.532757    1.302538    0.883484
H        -1.587206   -0.970185   -0.882408
H        -2.582521    0.190170   -0.000002
H        -1.587208   -0.970184    0.882407
H         1.904922    0.836060    0.000000
