8
0 2
S         1.182314   -0.159095   -0.000001
C        -0.431792    0.618330    0.000001
C        -1.613066   -0.333546    0.000000
H        -0.452596    1.282767   -0.868507
H        -0.452591    1.282757    0.868518
H        -1.594639   -0.974996   -0.880377
H        -2.553420    0.221288    0.000005
H        -1.594634   -0.975004    0.880372
