10
0 2
C        -1.309727   -0.240877    0.000000
C        -0.068092    0.570392   -0.000001
H        -1.734651   -0.605751   -0.924962
H        -1.734660   -0.605736    0.924965
C         1.207605   -0.284393    0.000001
H        -0.049709    1.222455    0.876967
H        -0.049708    1.222451   -0.876973
H         1.246468   -0.925855    0.880930
H         2.097073    0.347563   -0.000001
H         1.246468   -0.925860   -0.880925
