18
0 1
C        -0.439101   -1.045049    0.515448
C         0.856149   -0.288406    0.772448
C         1.753199   -0.155926   -0.447972
H         1.400196   -0.811517    1.565675
H         0.630662    0.704699    1.170793
C         3.031037    0.613808   -0.155145
H         1.198035    0.335634   -1.248796
H         2.002006   -1.155499   -0.817312
H         2.808909    1.627795    0.183355
H         3.661130    0.691878   -1.041472
H         3.616943    0.127030    0.627162
S        -1.599636   -0.255704   -0.626834
H        -0.965025   -1.237744    1.451878
H        -0.223817   -2.015936    0.065711
C        -2.149582    1.133875    0.376583
H        -1.344805    1.839345    0.574362
H        -2.574982    0.789625    1.318905
H        -2.925285    1.646135   -0.189086
