21
0 1
C         2.035446   -0.099839    0.426214
C         1.060779    0.291999   -0.671469
S        -0.315905    1.339927   -0.149304
H         0.675971   -0.594540   -1.178541
H         1.571903    0.885765   -1.431418
C        -1.206591    0.257876    0.998340
C        -1.761748   -1.030422    0.406828
C         3.201689   -0.915798   -0.112123
H         1.513810   -0.676883    1.192639
H         2.400084    0.805187    0.915703
H         2.854605   -1.836542   -0.584826
H         3.892058   -1.192212    0.685037
H         3.764262   -0.352922   -0.859208
C        -2.783761   -0.816577   -0.697020
H        -2.215810   -1.598587    1.223631
H        -0.939543   -1.648023    0.037567
H        -3.636957   -0.241480   -0.331705
H        -3.159298   -1.768663   -1.072418
H        -2.351126   -0.266828   -1.532072
H        -2.022341    0.883169    1.365859
H        -0.568019    0.040293    1.853997
