21
0 1
C        -2.631642    1.165522    0.391198
C        -1.773748    0.622601   -0.736431
H        -3.054869    2.133164    0.115448
H        -2.051305    1.310745    1.302299
H        -3.450132    0.483301    0.618988
S        -1.101645   -1.033285   -0.456325
H        -0.961344    1.309730   -0.974419
H        -2.365139    0.512727   -1.645834
C        -0.043153   -0.774253    0.990429
C         1.120438    0.188136    0.802610
H         0.329402   -1.773124    1.224349
H        -0.661105   -0.466246    1.833418
C         2.138969   -0.249089   -0.237995
H         1.618956    0.301489    1.770746
H         0.741254    1.181839    0.547694
C         3.283931    0.739923   -0.386579
H         1.637392   -0.385659   -1.197426
H         2.533497   -1.231004    0.040251
H         2.917018    1.720952   -0.695162
H         4.004042    0.406446   -1.134178
H         3.819885    0.871164    0.555630
