18
0 1
S         0.916848   -0.851587   -0.000003
C        -0.665062    0.080627   -0.000001
C        -1.740289   -1.001519   -0.000005
H        -2.728548   -0.538367   -0.000005
H        -1.660904   -1.634925    0.883749
H        -1.660903   -1.634920   -0.883763
C        -0.793617    0.939095    1.252028
H        -0.034751    1.720529    1.285110
H        -0.699912    0.332291    2.151862
H        -1.769265    1.430511    1.266946
C         2.166006    0.443249    0.000005
H         2.110593    1.065758    0.890827
H         2.110596    1.065766   -0.890810
H         3.126916   -0.067956    0.000004
C        -0.793616    0.939104   -1.252023
H        -0.699912    0.332307   -2.151861
H        -0.034749    1.720538   -1.285099
H        -1.769264    1.430522   -1.266937
