15
0 1
S         1.377155   -1.839696    0.000000
C        -0.227534   -0.983472    0.000000
C         0.000000    0.517836    0.000000
H         0.903176   -3.091735    0.000000
H        -0.792255   -1.277912    0.883850
C        -1.304032    1.302816    0.000000
H         0.593370    0.794491   -0.875911
H         0.593370    0.794491    0.875911
C        -1.082190    2.807030    0.000000
H        -1.896013    1.019145    0.874736
H        -1.896013    1.019145   -0.874736
H        -0.518679    3.120448    0.880635
H        -2.027955    3.349267    0.000000
H        -0.518679    3.120448   -0.880635
H        -0.792255   -1.277912   -0.883850
