10
0 1
C        -0.963289    1.597772   -0.793871
S        -0.963289    0.329433    0.493818
H        -1.966350    2.024315   -0.805044
H        -0.751315    1.168721   -1.770444
H        -0.242473    2.377615   -0.562371
S         0.963289   -0.329433    0.493818
C         0.963289   -1.597772   -0.793871
H         1.966350   -2.024315   -0.805044
H         0.751315   -1.168721   -1.770444
H         0.242473   -2.377615   -0.562371
