19
0 1
C        -1.272853    0.156597    0.071212
S         0.102231   -0.789307   -0.725122
S         1.733131   -0.505706    0.457124
C         2.584321    0.890570   -0.316001
H         3.526143    1.006898    0.220480
H         2.007985    1.807714   -0.232486
H         2.792217    0.674244   -1.360611
C        -2.443862   -0.048178   -0.884502
H        -2.232450    0.371385   -1.868342
H        -3.329304    0.449743   -0.485592
H        -2.678137   -1.106417   -1.004363
C        -1.587581   -0.429678    1.438818
H        -0.727723   -0.349765    2.103223
H        -1.864446   -1.480396    1.360176
H        -2.418666    0.114008    1.894053
C        -0.928721    1.632631    0.188081
H        -0.685370    2.060560   -0.784102
H        -0.083587    1.782301    0.859234
H        -1.780282    2.178277    0.600644
