9
0 1
S        -0.086854   -0.137332    0.063053
C         1.597208    0.370787   -0.012352
H         2.169835   -0.356953    0.558091
H         1.691953    1.359512    0.427490
H         1.913301    0.369295   -1.051854
O        -0.780819    0.968011   -0.855547
O        -0.584283    0.050677    1.388667
O        -0.212770   -1.383874   -0.604297
H        -1.345685    1.522219   -0.299044
