10
0 2
C         1.309727   -0.240877    0.000010
C         0.068092    0.570392   -0.000064
C        -1.207605   -0.284393    0.000046
H         0.049693    1.222345   -0.877117
H         0.049723    1.222561    0.876824
H        -1.246469   -0.925744    0.881056
H        -1.246467   -0.925971   -0.880799
H         1.734477   -0.606077   -0.924905
H         1.734833   -0.605410    0.925022
H        -2.097073    0.347563   -0.000037
