18
0 1
C         0.972059    0.234991    0.335873
C         1.158020    1.471284   -0.525797
H         1.532062    1.196808   -1.512890
H         1.877992    2.148179   -0.060619
S        -0.191172   -0.965197   -0.386869
C        -1.728157   -0.020466   -0.507063
C        -2.298954    0.447477    0.818975
H        -2.417560   -0.710867   -0.994042
H        -1.590709    0.816424   -1.191665
H        -2.440344   -0.392765    1.498134
H        -3.263613    0.935291    0.667280
H        -1.641815    1.167140    1.307132
C         2.285374   -0.502403    0.548275
H         0.579462    0.528319    1.310730
H         2.700321   -0.835665   -0.404331
H         2.151912   -1.376318    1.185183
H         3.013240    0.158513    1.020931
H         0.227751    2.022793   -0.657511
