15
0 2
C         1.037734   -1.198318   -0.010745
C        -0.337396   -1.205231   -0.004112
C         1.751567    0.000004   -0.011375
C         1.037732    1.198322   -0.010744
C        -0.337399    1.205232   -0.004110
C        -1.064077    0.000000    0.000327
H        -0.884962   -2.137436   -0.005114
H         1.577719   -2.136972   -0.017711
C         3.248586   -0.000001    0.014858
H         1.577715    2.136977   -0.017709
H        -0.884968    2.137436   -0.005112
S        -2.770495   -0.000002    0.006601
H         3.654650   -0.884044   -0.475018
H         3.612616   -0.000203    1.045137
H         3.654654    0.884225   -0.474681
