14
0 2
C         1.608031    0.139040   -0.000000
C         1.090745   -1.174238   -0.000001
C         0.882313    1.336903   -0.000000
H         2.685869    0.228936   -0.000001
C        -0.470249    1.542935    0.000000
C        -0.200937   -1.599706   -0.000000
C        -1.399355   -0.793247    0.000001
C        -1.510592    0.548298    0.000001
H         1.840400   -1.958695   -0.000001
H        -0.360895   -2.670297   -0.000001
H         1.488117    2.237304   -0.000000
H        -0.806060    2.571659    0.000000
H        -2.327325   -1.352987    0.000001
H        -2.519838    0.944169    0.000001
