15
0 1
C         1.251677   -0.022526   -0.646344
C         1.918988   -0.899337    0.396838
H         1.208531   -1.585443    0.858071
H         2.362185   -0.293670    1.186728
S        -0.000000    1.112550   -0.000000
H         0.819444   -0.624650   -1.445588
C        -1.251678   -0.022525    0.646344
H         1.983502    0.636703   -1.113984
C        -1.918987   -0.899338   -0.396838
H        -1.983504    0.636704    1.113981
H        -0.819445   -0.624647    1.445590
H        -2.362183   -0.293673   -1.186729
H        -2.706286   -1.502161    0.059560
H        -1.208529   -1.585445   -0.858068
H         2.706286   -1.502160   -0.059560
