17
0 1
C        -1.049416   -0.538313   -0.546079
S         0.579952   -1.115858   -0.030115
C         1.481659    0.406580   -0.073539
C         2.916714    0.273384    0.357632
C        -1.871855    0.066370    0.579429
H        -1.547554   -1.409510   -0.972848
H        -0.891431    0.187829   -1.342431
O         0.993524    1.450461   -0.413036
H         3.208644   -0.761482    0.522694
H         3.051664    0.836999    1.281037
H         3.552628    0.721417   -0.404704
C        -3.232831    0.536133    0.088723
H        -1.320826    0.905778    1.004838
H        -1.992883   -0.671481    1.375282
H        -3.128087    1.299186   -0.684187
H        -3.816121    0.965837    0.903087
H        -3.809075   -0.289445   -0.333637
