16
0 1
C         2.688599    0.851413    0.000017
S         1.807925   -0.711772   -0.000022
H         2.471278    1.435778   -0.892160
H         2.471258    1.435741    0.892214
C         0.115169   -0.228948   -0.000006
C        -0.326276    1.087254   -0.000010
C        -1.684757    1.365212    0.000002
C        -0.824790   -1.258191    0.000006
C        -2.174605   -0.972307    0.000015
C        -2.614609    0.343231    0.000014
H        -3.672785    0.565874    0.000023
H        -2.012577    2.396575   -0.000001
H         0.377313    1.906055   -0.000023
H        -0.489160   -2.287531    0.000009
H        -2.890172   -1.784001    0.000025
H         3.745648    0.593877    0.000025
