14
0 2
C         0.387163    1.214402    0.000003
C        -0.988951    1.210799    0.000000
C         1.051504    0.000000    0.000005
C         0.387163   -1.214402    0.000004
C        -0.988951   -1.210799    0.000002
C        -1.705079    0.000000    0.000000
H        -1.539763    2.140269   -0.000001
H         0.953999    2.132451    0.000004
N         2.523683    0.000000    0.000009
H         0.953999   -2.132451    0.000006
H        -1.539763   -2.140269    0.000001
S        -3.417334   -0.000000   -0.000003
O         3.082876    1.074740   -0.000007
O         3.082876   -1.074740   -0.000008
