16
0 2
C         2.112618   -0.726794    0.169667
C         1.457503    0.548002   -0.207183
C         0.015989    0.672408    0.278016
H         1.493048    0.678592   -1.294035
H         2.037327    1.390868    0.198752
C        -0.936055   -0.313013   -0.383978
H        -0.338642    1.690925    0.097253
H        -0.009229    0.528391    1.363219
C        -2.364713   -0.183444    0.119192
H        -0.576449   -1.331336   -0.216545
H        -0.911459   -0.158373   -1.466920
H        -2.420040   -0.366774    1.194062
H        -3.028864   -0.894555   -0.373019
H        -2.757169    0.818965   -0.063465
H         2.976561   -1.092340   -0.366612
H         1.822862   -1.247314    1.073029
