9
0 1
S         0.000000    0.000000    0.655597
C         0.000000    1.371719   -0.507889
H         0.890273    1.355282   -1.135792
H         0.000000    2.291157    0.074146
H        -0.890273    1.355282   -1.135792
C        -0.000000   -1.371719   -0.507889
H        -0.000000   -2.291157    0.074146
H         0.890273   -1.355282   -1.135792
H        -0.890273   -1.355282   -1.135792
