18
0 1
S        -1.457263    0.000000   -0.170618
C        -1.963452    0.000000    1.527454
O        -1.874057   -1.247181   -0.746011
O        -1.874057    1.247181   -0.746011
H        -1.589556   -0.897061    2.013967
H        -3.052011    0.000000    1.516406
H        -1.589556    0.897062    2.013967
C         0.310760    0.000000   -0.079075
C         0.988147   -1.207574   -0.045270
C         0.988147    1.207574   -0.045270
C         2.369085   -1.202416    0.036694
C         2.369085    1.202416    0.036694
C         3.056352    0.000000    0.081117
H         0.433166   -2.133353   -0.104713
H         2.910317   -2.138463    0.057612
H         0.433166    2.133353   -0.104713
H         2.910317    2.138463    0.057612
H         4.136527    0.000000    0.141882
