7
0 1
S        -1.246420   -0.359376   -0.546368
S         0.422072   -0.820785    0.442543
Cl         1.848813    0.549706   -0.164055
C        -1.973832    0.971683    0.435247
H        -2.929071    1.211800   -0.030947
H        -1.331393    1.848261    0.410347
H        -2.136789    0.647412    1.459246
