8
0 1
S         0.410408   -0.197964   -0.000000
O         0.733039   -0.812136    1.240466
O         0.733038   -0.812136   -1.240467
C         0.987645    1.469710   -0.000000
H         0.630666    1.961517   -0.899649
H         2.074658    1.403286   -0.000001
H         0.630667    1.961517    0.899648
Cl        -1.621000    0.118649    0.000001
