14
0 2
C        -2.825110   -0.000000    0.072136
C        -2.138413   -1.203170    0.031521
C        -0.758039   -1.211506   -0.053354
C        -2.138413    1.203170    0.031520
C        -0.758040    1.211506   -0.053354
C        -0.088576    0.000000   -0.083803
H        -3.904866   -0.000000    0.137595
H        -2.678794   -2.139060    0.069095
H        -0.200575   -2.136806   -0.075701
H        -2.678794    2.139060    0.069095
H        -0.200575    2.136806   -0.075702
S         1.686402    0.000000   -0.242584
O         2.182545   -1.265424    0.255559
O         2.182545    1.265424    0.255560
