15
0 1
C         3.212965   -0.000001    0.246448
C         2.535537    1.203524    0.131521
C         1.171953    1.211623   -0.095550
C         2.535536   -1.203526    0.131514
C         1.171952   -1.211623   -0.095557
C         0.511088    0.000001   -0.204467
H         4.280134   -0.000002    0.423427
H         3.070720    2.139170    0.215389
H         0.623730    2.136955   -0.197641
H         3.070719   -2.139172    0.215377
H         0.623729   -2.136953   -0.197653
S        -1.220358    0.000002   -0.503498
Cl        -1.955791   -0.000006    1.418282
O        -1.608065   -1.242868   -1.074830
O        -1.608065    1.242878   -1.074818
