10
0 2
C        -0.943313   -0.736683    0.264164
S         0.605781    0.065331   -0.258933
C        -2.161604    0.076519   -0.109761
H        -0.818971   -0.848746    1.342246
H        -0.917041   -1.721714   -0.197468
H        -2.121229    1.066738    0.338943
H        -3.057953   -0.428950    0.248896
H        -2.249728    0.190875   -1.189753
O         0.580314    1.422229    0.248987
O         1.682428   -0.840045    0.085219
