13
0 1
S         1.462973   -0.000004    0.938637
C        -0.211464   -0.000001    0.388848
Cl         2.476968    0.000003   -0.844570
C        -0.877971    1.204039    0.195268
C        -0.877972   -1.204040    0.195263
C        -2.204941   -1.201541   -0.193765
C        -2.866988    0.000002   -0.388382
C        -2.204939    1.201543   -0.193760
H        -0.348570    2.133967    0.349799
H        -2.723885    2.138483   -0.344464
H        -0.348573   -2.133969    0.349789
H        -2.723888   -2.138480   -0.344473
H        -3.905458    0.000003   -0.691977
