14
0 1
C         1.036102    0.058443    0.963751
C        -0.364148    0.593728    0.689102
N        -0.432270    1.793744   -0.131532
C        -1.249162   -0.499585    0.075615
H        -0.830914    0.819893    1.652571
O        -1.154991   -1.655814    0.372767
O        -2.144532   -0.040346   -0.788813
H        -1.954723    0.919270   -0.878891
H         0.286153    1.771667   -0.848124
H        -0.328174    2.639149    0.410163
S         1.988943   -0.289810   -0.539518
H         0.977501   -0.840528    1.570407
H         1.613910    0.803750    1.509042
H         1.298475   -1.378681   -0.904599
