20
0 1
C        -3.179605    0.232118   -0.734491
C        -1.871052    0.917213   -0.378001
H        -3.101520   -0.274478   -1.697509
H        -3.988450    0.959321   -0.803193
H        -3.456921   -0.514107    0.008270
C        -0.667131   -0.013145   -0.322711
H        -1.972049    1.440639    0.577718
H        -1.654987    1.686444   -1.125783
C         0.653615    0.750198   -0.190203
C         1.840250   -0.150967   -0.560396
O         1.784658   -0.975143   -1.426032
O         2.944435    0.104449    0.130989
N         0.907291    1.395990    1.087981
S        -0.813604   -1.301245    0.965000
H        -0.604642   -0.581052   -1.250689
H         0.657535    1.530940   -0.957238
H         2.696530    0.796127    0.780989
H         0.596153    0.809860    1.854537
H         0.470548    2.302413    1.163596
H        -1.464777   -0.555070    1.868590
