15
0 1
C        -2.990209   -0.404203   -0.030375
C        -1.774969    0.507431    0.035503
H        -2.995585   -0.984152   -0.954969
H        -3.919018    0.165172    0.010647
H        -2.996057   -1.110767    0.801613
C        -0.461092   -0.259729   -0.022385
H        -1.809470    1.098811    0.955013
H        -1.809550    1.225078   -0.789279
C         0.749396    0.652672    0.051459
H        -0.412073   -0.847013   -0.942312
H        -0.422741   -0.978167    0.801828
H         0.735336    1.246893    0.964911
H         0.746988    1.355120   -0.783414
S         2.344700   -0.200533   -0.081206
H         2.228212   -0.939470    1.030043
