15
0 1
C         1.019646    1.208435   -0.212500
C         2.376141    0.959891   -0.290068
C         2.860542   -0.319287   -0.067251
C         1.984803   -1.348790    0.232763
C         0.624196   -1.106373    0.292545
C         0.134204    0.173082    0.065669
H         0.625190    2.203007   -0.365822
H         3.059110    1.766373   -0.520300
H         2.361940   -2.344020    0.425063
H        -0.049372   -1.910883    0.552256
H         3.923577   -0.512757   -0.121567
C        -1.311309    0.527822    0.150886
O        -1.687334    1.621861    0.468044
S        -2.550637   -0.694611   -0.249488
H        -1.740919   -1.631507   -0.754427
