16
0 1
C        -0.775233    0.002245   -0.032096
C        -0.079559    1.199115   -0.023937
C         1.301335    1.200086   -0.010153
C        -0.081516   -1.197066   -0.023775
C         1.298031   -1.199492   -0.009647
C         2.001638    0.000259   -0.002178
C        -2.271433    0.001561   -0.000078
H         1.832902    2.141856   -0.008300
H        -0.621264   -2.133518   -0.035404
H         1.833358   -2.139632   -0.006974
S         3.759512   -0.081206    0.012511
H         3.982861    1.237678    0.019790
F        -2.789805    1.098129   -0.572538
F        -2.745961   -0.034845    1.259298
F        -2.788922   -1.061497   -0.633707
H        -0.617436    2.136576   -0.035589
