8
0 2
C         1.613066   -0.333546    0.000001
C         0.431792    0.618330    0.000001
H         1.594638   -0.974997   -0.880375
H         1.594635   -0.975002    0.880373
H         2.553420    0.221288    0.000004
S        -1.182314   -0.159095   -0.000001
H         0.452595    1.282765   -0.868509
H         0.452592    1.282759    0.868516
