19
0 2
C        -3.201512    0.108360   -0.716832
C        -1.903939    0.837092   -0.411381
H        -3.115675   -0.467035   -1.639679
H        -4.019291    0.818163   -0.840046
H        -3.469870   -0.582302    0.080680
C        -0.680660   -0.078235   -0.286341
H        -2.013549    1.431940    0.498962
H        -1.687879    1.545931   -1.216147
C         0.632847    0.709096   -0.284464
C         1.822989   -0.227909   -0.531955
O         1.765400   -1.169578   -1.268584
O         2.928964    0.129709    0.108183
N         0.886791    1.527636    0.890267
S        -0.820863   -1.139032    1.164288
H        -0.658174   -0.754522   -1.143302
H         0.622037    1.372710   -1.154715
H         2.677641    0.902155    0.659197
H         0.453276    2.437151    0.834801
H         0.564494    1.055407    1.728815
