14
0 2
C         0.853724   -1.254244   -0.676556
C         0.301814   -0.000000   -0.006156
H         0.576461   -1.291132   -1.730132
H         0.473642   -2.153619   -0.194558
H         1.944680   -1.259995   -0.615143
C         0.853723    1.254245   -0.676555
H         0.473640    2.153620   -0.194556
H         0.576459    1.291134   -1.730131
H         1.944679    1.259996   -0.615142
C         0.655237   -0.000001    1.483551
S        -1.515695   -0.000000   -0.076597
H         0.266015    0.885305    1.985721
H         1.742533   -0.000001    1.588074
H         0.266015   -0.885307    1.985720
