8
0 1
C        -1.549703   -0.000000   -0.109851
S         0.185494   -0.000000    0.206170
H        -1.988608   -0.900214    0.314171
H        -1.662868    0.000003   -1.192940
H        -1.988609    0.900212    0.314175
O         0.735681    1.247396   -0.227522
O         0.735682   -1.247395   -0.227526
H         0.199502   -0.000003    1.565376
