12
0 1
C        -0.998849   -0.506123   -0.069780
C        -2.403573    0.073347    0.010493
H        -3.157577   -0.707158   -0.091846
H        -2.573511    0.805167   -0.781359
H        -2.571542    0.574306    0.965629
C         0.069094    0.563413    0.076087
H        -0.040088    1.096670    1.020432
H        -0.026006    1.304864   -0.718844
S         1.770970   -0.045399   -0.074032
H        -0.855961   -1.024147   -1.019730
H        -0.863001   -1.256788    0.712831
H         1.752136   -0.850359    0.996591
