14
0 2
C         2.723864   -0.374302   -0.145536
C         1.309369   -0.276072    0.401569
H         2.715547   -0.629897   -1.206627
H         3.300232   -1.139000    0.375500
H         3.255518    0.573256   -0.038475
C         0.477421    0.785421   -0.300253
H         1.342217   -0.055428    1.473000
H         0.807672   -1.242054    0.300965
C        -0.945526    0.878542    0.224848
H         0.449654    0.580920   -1.373389
H         0.956644    1.762230   -0.177491
H        -1.477768    1.721989   -0.226967
H        -0.959753    1.068305    1.301598
S        -1.986296   -0.545116   -0.094493
