33
0 1
C         6.896456   -0.441508   -0.014124
C         5.645447    0.422308    0.013319
H         6.927787   -1.057962   -0.914621
H         6.927800   -1.113892    0.845422
H         7.802935    0.164299    0.005116
C         4.359806   -0.390252   -0.012499
H         5.654220    1.107579   -0.839348
H         5.654218    1.052110    0.907747
C         3.101947    0.463517    0.014569
H         4.350023   -1.076769    0.840630
H         4.350041   -1.021268   -0.907445
C         1.817391   -0.349827   -0.011324
H         3.112448    1.149726   -0.838587
H         3.112403    1.094280    0.909513
C         0.559706    0.504399    0.015791
H         1.806745   -1.036079    0.841745
H         1.806730   -0.980463   -0.906257
C        -0.724382   -0.309545   -0.010580
H         0.570342    1.190614   -0.837279
H         0.570058    1.134886    0.910880
C        -1.981762    0.545539    0.016983
H        -0.735484   -0.995865    0.842271
H        -0.735607   -0.939476   -0.905739
C        -3.263216   -0.275036   -0.013248
H        -1.970808    1.232236   -0.835619
H        -1.971783    1.174257    0.913176
C        -4.508637    0.591489    0.023737
H        -3.276476   -0.962004    0.837931
H        -3.287211   -0.898440   -0.909912
H        -4.520059    1.220855    0.913351
S        -6.069180   -0.327955   -0.077057
H        -4.531562    1.260493   -0.837841
H        -5.926422   -1.018340    1.062023
