22
0 1
C         2.024174   -0.014468   -0.005930
C         1.298706   -1.195321   -0.010403
C        -0.086047   -1.207285   -0.000823
C         1.318692    1.176344   -0.005375
C        -0.069046    1.219025   -0.003792
C        -0.770721    0.011891    0.007920
H         1.863483    2.113149   -0.013979
S        -2.541078   -0.075873   -0.004669
H         1.825065   -2.142801   -0.020849
H        -2.790302    1.198495    0.301021
C        -0.761410    2.548954   -0.023775
H        -0.034706    3.355885   -0.091859
H        -1.349476    2.713808    0.882619
H        -1.439773    2.634373   -0.874928
C         3.524811   -0.029508    0.019832
H         3.923470   -0.841205   -0.588713
H         3.897512   -0.170966    1.036740
H         3.936382    0.907578   -0.353373
C        -0.828349   -2.510199   -0.006799
H        -0.134963   -3.348765    0.001577
H        -1.461772   -2.605541   -0.891576
H        -1.482534   -2.596631    0.862884
