21
0 2
C         1.972986    0.000025   -0.011501
C         1.262741   -1.196362   -0.010719
C        -0.115227   -1.227599   -0.003527
C         1.262724    1.196391   -0.010716
C        -0.115254    1.227601   -0.003525
C        -0.838173   -0.000003    0.001328
H         1.809284    2.131719   -0.017765
S        -2.538361   -0.000018    0.008972
H         1.809320   -2.131680   -0.017770
C        -0.824356    2.545590   -0.003883
H        -0.106687    3.364106   -0.007750
H        -1.467122    2.645785    0.870204
H        -1.472832    2.642515   -0.874139
C         3.469614    0.000010    0.015591
H         3.876004   -0.884200   -0.473822
H         3.831835   -0.000850    1.046613
H         3.876013    0.885002   -0.472388
C        -0.824312   -2.545598   -0.003886
H        -0.106630   -3.364103   -0.007755
H        -1.472788   -2.642530   -0.874140
H        -1.467074   -2.645803    0.870203
