13
0 2
C         1.060907   -0.116836    0.913044
C        -0.310970    0.520387    0.709119
N        -0.322062    1.780927   -0.014968
C        -1.266599   -0.475522    0.036069
H        -0.748297    0.696430    1.696163
O        -1.242127   -1.650258    0.261998
O        -2.144017    0.093111   -0.781159
H        -1.903507    1.044106   -0.809213
H         0.375388    1.772600   -0.752250
H        -0.157940    2.576234    0.584646
S         2.015803   -0.317080   -0.586119
H         0.954151   -1.092297    1.386657
H         1.670902    0.498713    1.580587
