15
0 2
C        -0.055389   -1.030711    0.000012
C         1.315916   -1.179622    0.000014
C         2.127527   -0.049663   -0.000000
C         1.564508    1.223915   -0.000016
C         0.193320    1.362697   -0.000016
C        -0.619594    0.236300   -0.000002
H        -0.687235   -1.909711    0.000028
H         1.764393   -2.162560    0.000027
H         2.206760    2.092954   -0.000028
H        -0.268298    2.339979   -0.000026
C         3.551571   -0.198773    0.000003
C        -2.090529    0.436838    0.000002
O        -2.618586    1.519985    0.000073
S        -3.176606   -0.943431   -0.000038
N         4.690683   -0.318790    0.000007
