16
0 1
C         1.812089    0.000001    0.015518
C         1.097796    1.191327    0.007792
C        -0.285266    1.195868   -0.010049
C         1.097795   -1.191325    0.007795
C        -0.285265   -1.195867   -0.010047
C        -0.988279    0.000001   -0.011590
C         3.312531   -0.000001    0.000708
H         1.632069    2.133476    0.015317
H        -0.827681    2.131264   -0.020043
H         1.632070   -2.133474    0.015323
H        -0.827680   -2.131263   -0.020041
S        -2.769187    0.000001   -0.075516
H        -2.987556   -0.000037    1.247133
H         3.713834    0.882895    0.496950
H         3.689700   -0.000098   -1.024261
H         3.713832   -0.882806    0.497114
