17
0 1
C         1.369680    0.280037    0.001871
C         0.542685    1.400142   -0.004637
C        -0.825214    1.249628   -0.017343
C         0.807978   -0.988666   -0.004040
C        -0.572396   -1.126103   -0.009294
C        -1.400740   -0.018425   -0.009289
O         2.699781    0.525600    0.009504
H         0.999159    2.380273   -0.006954
H        -1.463729    2.122127   -0.035157
H         1.426263   -1.873119   -0.004025
H        -1.009635   -2.115059   -0.012104
S        -3.167745   -0.216989   -0.068405
H        -3.408051   -0.065774    1.242074
C         3.585812   -0.571612    0.010031
H         3.449629   -1.192840    0.898774
H         4.587577   -0.151464    0.015898
H         3.457630   -1.187127   -0.883840
