14
0 2
C        -1.051503    0.000000    0.000001
C        -0.387162    1.214406   -0.000002
C         0.988953    1.210801   -0.000002
C        -0.387163   -1.214406    0.000005
C         0.988953   -1.210801    0.000004
C         1.705075   -0.000000   -0.000000
H        -0.954006   -2.132447    0.000007
H         1.539774   -2.140265    0.000006
S         3.417334   -0.000000   -0.000003
H        -0.954006    2.132447   -0.000004
H         1.539775    2.140265   -0.000006
N        -2.523676   -0.000000    0.000000
O        -3.082880    1.074729    0.000001
O        -3.082880   -1.074729    0.000000
