7
0 2
C        -1.560948   -0.000000    0.093716
S         0.203860   -0.000000   -0.269358
H        -1.992147    0.900361   -0.333192
H        -1.649589   -0.000001    1.178781
H        -1.992147   -0.900361   -0.333192
O         0.733613   -1.262055    0.202190
O         0.733613    1.262056    0.202190
