19
0 1
C        -0.165657    1.214878    0.115469
C        -1.526474    0.978306    0.148539
C        -2.000472   -0.315326   -0.039486
C        -1.100735   -1.355816   -0.259697
C         0.251260   -1.108088   -0.273540
C         0.740834    0.182333   -0.080513
H         0.214572    2.218398    0.245480
H        -2.204042    1.800976    0.316604
H        -1.491239   -2.350267   -0.423604
H         0.928706   -1.925691   -0.474801
O        -3.304274   -0.654908   -0.031112
C         2.178699    0.545874   -0.115354
O         2.561785    1.653426   -0.378559
S         3.425323   -0.681424    0.262027
H         2.624640   -1.642363    0.734498
C        -4.268027    0.357718    0.173410
H        -4.140586    0.834928    1.147659
H        -5.234726   -0.135901    0.138051
H        -4.219143    1.115298   -0.611914
