13
0 1
C        -2.277111    0.005156    0.000010
C        -1.580584   -1.191774    0.000002
C        -0.197938   -1.198692   -0.000007
C        -1.575276    1.198229   -0.000001
C        -0.191643    1.200108   -0.000011
C         0.506142   -0.000432   -0.000003
H        -3.358405    0.007859    0.000016
H        -2.116424   -2.131735   -0.000002
H         0.338461   -2.138803   -0.000014
H        -2.106749    2.140753    0.000000
H         0.343741    2.140365   -0.000024
S         2.269017   -0.083092    0.000002
H         2.493563    1.235456    0.000053
