12
0 2
S         0.556336   -0.000038    0.954874
S         1.704514    0.000020   -0.618296
C        -1.178651   -0.000008    0.356092
C        -1.492791   -1.263799   -0.422639
H        -0.887214   -1.311167   -1.327753
H        -2.543739   -1.266333   -0.715528
H        -1.298102   -2.158320    0.167802
C        -1.492772    1.263836   -0.422560
H        -1.730274   -0.000034    1.300039
H        -1.298066    2.158317    0.167936
H        -2.543721    1.266406   -0.715448
H        -0.887195    1.311249   -1.327673
