15
0 2
S         0.582832   -0.927896    0.000003
S         2.118103    0.266203   -0.000003
C        -0.953092    0.112043    0.000000
C        -2.089163   -0.904068   -0.000005
H        -2.055543   -1.540985   -0.884483
H        -3.045159   -0.378363   -0.000004
H        -2.055546   -1.540991    0.884469
C        -0.984246    0.970719    1.253751
H        -0.968896    0.357836    2.155013
H        -1.896761    1.570016    1.262332
H        -0.131480    1.647592    1.282181
C        -0.984241    0.970725   -1.253747
H        -0.968887    0.357847   -2.155012
H        -0.131474    1.647598   -1.282170
H        -1.896756    1.570022   -1.262329
