28
0 1
S         0.289572   -1.928025   -0.730188
S         1.214688   -1.322986    0.981989
C         2.621224   -0.328947    0.396127
C        -0.967462   -0.652607   -1.042542
C        -2.025279   -0.525946    0.035102
H        -1.413513   -0.963771   -1.990613
H        -0.474234    0.302420   -1.216926
C         2.270497    0.927351   -0.380693
H         3.268078   -0.977626   -0.192218
H         3.153682   -0.080989    1.318377
C         1.451454    1.948251    0.393232
H         1.745209    0.639836   -1.294851
H         3.206682    1.389470   -0.709392
C        -3.013717    0.595334   -0.253860
H        -1.536028   -0.340348    0.994084
H        -2.554980   -1.476496    0.135640
C        -4.073690    0.733717    0.827338
H        -3.495189    0.418030   -1.220027
H        -2.467657    1.538029   -0.354403
H        -4.654506   -0.184956    0.926975
H        -4.768239    1.544088    0.604616
H        -3.618073    0.941833    1.797078
C         1.076742    3.155766   -0.450701
H         2.017238    2.271964    1.271699
H         0.547082    1.472494    0.777342
H         1.964237    3.664699   -0.831483
H         0.498853    3.880081    0.123697
H         0.474580    2.859896   -1.312430
