12
0 2
S         0.000000   -0.000000    2.283138
C         0.000000   -0.000000    0.573087
C        -0.000000   -1.208937   -0.146714
C        -0.000000   -1.204740   -1.524194
C        -0.000000    0.000000   -2.216169
C         0.000000    1.204740   -1.524194
C         0.000000    1.208937   -0.146714
H         0.000000    2.138105    0.405749
H        -0.000000    0.000000   -3.298102
H         0.000000    2.140326   -2.067111
H        -0.000000   -2.138105    0.405749
H        -0.000000   -2.140326   -2.067111
