15
0 2
S         2.118103    0.266203   -0.000004
S         0.582832   -0.927896    0.000004
C        -0.953092    0.112043    0.000000
C        -2.089163   -0.904068   -0.000005
H        -2.055546   -1.540991    0.884468
H        -2.055543   -1.540985   -0.884483
H        -3.045159   -0.378363   -0.000005
C        -0.984247    0.970719    1.253751
H        -0.968899    0.357835    2.155013
H        -1.896761    1.570017    1.262332
H        -0.131479    1.647590    1.282183
C        -0.984240    0.970726   -1.253746
H        -0.968888    0.357847   -2.155012
H        -0.131473    1.647597   -1.282170
H        -1.896754    1.570024   -1.262327
