10
0 1
S         0.448286    0.914057   -0.493938
S        -0.448286   -0.914057   -0.493938
C         0.448286   -1.810738    0.794056
H         1.509398   -1.852925    0.562569
H         0.040275   -2.821472    0.805668
H         0.294952   -1.356986    1.770437
C        -0.448286    1.810738    0.794056
H        -1.509398    1.852925    0.562569
H        -0.040275    2.821472    0.805668
H        -0.294952    1.356986    1.770437
