24
0 1
S         1.551873    0.646959   -0.996147
S         0.793433   -1.212051   -0.660600
C         2.909397    0.821561    0.220101
S        -0.645710   -1.080370    0.830612
S        -2.475905   -1.061286   -0.057566
C        -2.941075    0.700778   -0.217302
C         4.024216   -0.180993   -0.014527
H         3.668012   -1.196649    0.159248
H         4.848105    0.007831    0.676061
H         4.405203   -0.121269   -1.032754
C        -2.969149    1.417001    1.120012
H        -1.965902    1.476445    1.542770
H        -3.612596    0.905112    1.833910
H        -3.337017    2.436169    0.989003
C         2.414621    0.813947    1.654405
H         3.266339    1.824900   -0.031161
H         1.620202    1.542017    1.809528
H         3.238084    1.047101    2.331754
H         2.032009   -0.170287    1.925446
C        -2.114735    1.438860   -1.253162
H        -3.965385    0.588191   -0.586524
H        -1.088615    1.563877   -0.909377
H        -2.534554    2.432215   -1.423562
H        -2.092606    0.905399   -2.202294
