14
0 1
C        -2.912555    0.519141   -0.022392
C        -2.602335   -0.831121   -0.054176
C        -1.284033   -1.244670   -0.034573
C        -1.891073    1.450300    0.031208
C        -0.566553    1.044945    0.058007
C        -0.261275   -0.304315    0.024567
H        -3.944557    0.841708   -0.041640
H        -3.391506   -1.569769   -0.100357
H        -1.046497   -2.300707   -0.067904
H        -2.121639    2.507258    0.053879
H         0.226185    1.778028    0.093966
S         1.382936   -0.975926    0.081879
S         2.654650    0.599751   -0.150210
H         2.783578    0.956602    1.139519
