11
0 1
Si         0.022771    0.012887    0.006396
C        -1.782390   -0.325569    0.161057
H        -1.967763   -1.391312    0.296221
H        -2.323751    0.005660   -0.726258
H        -2.196280    0.204428    1.019128
O         0.729622   -0.871656   -1.186111
O         0.860346   -0.397423    1.349942
O         0.154187    1.622086   -0.250880
H         0.443045   -0.749825   -2.092311
H         1.451284   -1.149867    1.287086
H         1.015763    2.029863   -0.143361
