14
0 1
Si         0.333428   -0.000016    0.000001
Cl        -1.748028    0.000031   -0.000001
C         0.888119   -1.771435    0.095133
H         0.520858   -2.248559    1.004076
H         1.978599   -1.830580    0.098317
H         0.520866   -2.343157   -0.757491
C         0.888190    0.968087    1.486519
H         1.978674    1.000342    1.536166
H         0.520898    0.515623    2.407976
H         0.521015    1.993846    1.445216
C         0.888188    0.803310   -1.581651
H         0.520959    0.254725   -2.449352
H         1.978672    0.830123   -1.634435
H         0.520949    1.827569   -1.650479
