13
0 2
Si        -0.000010    0.000045   -0.426100
C        -1.054832    1.430966    0.176954
H        -1.072408    1.454723    1.270826
H        -2.084124    1.341454   -0.171245
H        -0.664773    2.387706   -0.171186
C        -0.711847   -1.629017    0.176645
C         1.766688    0.198003    0.176749
H        -0.723659   -1.656332    1.270511
H        -0.119691   -2.475609   -0.171691
H        -1.735431   -1.769542   -0.171536
H         1.796211    0.201200    1.270617
H         2.203786    1.134184   -0.171399
H         2.400178   -0.618123   -0.171580
