7
0 2
Si         0.000001   -0.000006    0.365230
O        -1.370364   -0.687379   -0.211655
O         1.280484   -0.843057   -0.211656
O         0.089884    1.530449   -0.211648
H        -1.538520   -1.610987   -0.011175
H         2.164425   -0.526867   -0.011177
H        -0.625952    2.137836   -0.011194
