26
0 1
Si         1.018164   -0.115580   -0.020305
C         1.344728   -0.074018    1.824769
H         2.385224   -0.324870    2.039132
H         0.717371   -0.789287    2.358921
H         1.152643    0.915055    2.243709
C         1.372471   -1.836298   -0.673793
C         2.158595    1.099799   -0.877671
C        -0.780316    0.342706   -0.377965
H         2.426796   -2.087619   -0.544261
H         1.145130   -1.909620   -1.739028
H         0.788431   -2.598165   -0.156119
H         3.201853    0.804620   -0.751295
H         2.052678    2.108747   -0.477070
H         1.956600    1.144544   -1.949603
C        -1.088261    1.789009    0.015623
H        -1.021235    1.923709    1.097991
H        -2.092156    2.090404   -0.286202
H        -0.392596    2.490587   -0.445779
C        -1.761479   -0.649282    0.258953
H        -0.889155    0.259846   -1.467755
C        -3.208553   -0.481486   -0.186936
H        -1.708653   -0.555794    1.348264
H        -1.447472   -1.670616    0.029516
H        -3.615564    0.486426    0.104941
H        -3.845584   -1.249496    0.253746
H        -3.291712   -0.562926   -1.272722
