11
0 1
Si         0.000000    0.545512   -0.000001
C        -1.542975   -0.508511    0.000001
H        -2.441941    0.108755   -0.000001
H        -1.577766   -1.149879    0.881953
H        -1.577765   -1.149882   -0.881950
C         1.542975   -0.508511    0.000000
H         0.000000    1.423487    1.196178
H        -0.000000    1.423485   -1.196181
H         1.577767   -1.149878    0.881953
H         2.441941    0.108755   -0.000002
H         1.577765   -1.149883   -0.881949
