7
0 2
Si         0.000013    0.000026    0.365248
O        -0.199104    1.520074   -0.211766
O         1.415985   -0.587636   -0.211661
O        -1.216897   -0.932481   -0.211546
H         2.224824   -0.111021   -0.011302
H        -1.016281    1.982238   -0.011376
H        -1.208585   -1.871227   -0.011018
