10
0 2
Si         0.000000    0.574026   -0.133293
C         1.550107   -0.466058    0.041230
H         2.448062    0.144817   -0.049504
H         1.591308   -1.242058   -0.723688
H         1.573902   -0.956057    1.018253
C        -1.550107   -0.466058    0.041230
H        -1.591308   -1.242058   -0.723688
H        -2.448062    0.144817   -0.049504
H        -1.573902   -0.956057    1.018253
H         0.000000    1.662935    0.881220
