7
0 2
Si        -0.000002   -0.000006    0.365241
O         1.098671   -1.069248   -0.211657
O         0.376687    1.486098   -0.211624
O        -1.475341   -0.416839   -0.211658
H         2.026370   -0.925225   -0.011264
H        -0.211987    2.217463   -0.011386
H        -1.814485   -1.292241   -0.011209
