14
0 1
Si        -0.000002    0.000008    0.026457
F         0.000067   -0.000001    1.639026
C         1.324818    1.180597   -0.521093
H         1.129934    2.188473   -0.151990
H         1.378293    1.228283   -1.610547
H         2.303701    0.871331   -0.152017
C         0.359994   -1.737641   -0.521052
H         1.330129   -2.072899   -0.151612
H         0.374939   -1.807744   -1.610499
H        -0.397469   -2.430701   -0.152285
C        -1.684879    0.557034   -0.520957
H        -1.906296    1.559551   -0.152169
H        -2.460296   -0.115471   -0.151495
H        -1.753109    0.579134   -1.610411
