10
0 2
Si        -0.036464   -0.588184    0.000000
C        -0.036464    0.466465    1.550091
H        -0.024859   -0.150978    2.448063
H        -0.919246    1.105192    1.591278
H         0.846008    1.111382    1.573873
C        -0.036464    0.466465   -1.550091
H        -0.024859   -0.150978   -2.448063
H         0.846008    1.111382   -1.573873
H        -0.919246    1.105192   -1.591278
H         1.144247   -1.494193   -0.000000
