40
0 2
Si         0.536567   -2.200869   -0.047664
Si        -0.000331    0.000336   -0.605044
C         1.070418   -2.279521    1.753882
C         1.940488   -2.830981   -1.120608
C        -0.960174   -3.309981   -0.280710
Si         1.638305    1.565125   -0.047624
Si        -2.174938    0.635968   -0.047554
H        -1.785540   -3.007954    0.365418
H        -0.711054   -4.345302   -0.037919
H        -1.317044   -3.284808   -1.311065
H         1.955756   -1.667600    1.932477
H         1.311320   -3.305773    2.041088
H         0.281405   -1.921823    2.416687
H         2.830825   -2.210282   -1.014774
H         1.660435   -2.832163   -2.174689
H         2.209391   -3.852511   -0.842567
C        -2.509828    0.214063    1.754200
H        -3.518997    0.518873    2.041249
H        -1.805334    0.718772    2.416599
H        -2.422735   -0.858504    1.933422
C        -3.422692   -0.265740   -1.119551
H        -3.283868   -0.023605   -2.173896
H        -4.441735    0.012535   -0.841559
H        -3.330384   -1.347062   -1.012743
C        -2.387949    2.486482   -0.281990
H        -2.187996    2.782304   -1.312606
H        -1.714061    3.051219    0.363651
H        -3.409306    2.787905   -0.039347
C         1.445818    2.060474    1.756394
H         0.474002    2.520820    1.940170
H         2.215312    2.781038    2.043452
H         1.532751    1.195841    2.415776
C         3.346671    0.825051   -0.288840
H         3.500146   -0.042830    0.353938
H         4.119144    1.558021   -0.046076
H         3.500084    0.506885   -1.320770
C         1.477849    3.099398   -1.115040
H         0.495307    3.559335   -1.004444
H         1.615464    2.860888   -2.170373
H         2.228679    3.842461   -0.837103
