16
0 2
Si         0.000000   -0.336645   -0.590883
S        -1.663287   -1.183502    0.431553
S         1.663287   -1.183501    0.431553
S        -0.000000    1.803887   -0.551770
C        -3.034569   -0.369492   -0.442980
H        -2.884516    0.706327   -0.481926
H        -3.936615   -0.587645    0.123065
H        -3.140581   -0.764973   -1.449558
C         3.034569   -0.369492   -0.442980
H         3.936615   -0.587645    0.123065
H         2.884516    0.706327   -0.481926
H         3.140581   -0.764973   -1.449558
C        -0.000000    2.133938    1.241290
H         0.888081    1.715496    1.706964
H        -0.888081    1.715496    1.706964
H         0.000000    3.214740    1.361914
