35
0 2
Si         0.537600    1.066697   -0.294692
C         1.653325   -0.087021    0.708864
C        -1.256467    0.600401   -0.098339
C        -1.647996   -0.742013   -0.096734
C        -2.974112   -1.128035    0.004985
C        -3.944541   -0.135256    0.102711
C        -3.588404    1.200188    0.097545
C        -2.257113    1.567217   -0.004909
H        -1.999414    2.618715   -0.005700
H        -0.894035   -1.517296   -0.180183
H        -4.353642    1.961899    0.175175
C         0.821368    2.865163    0.160988
H         0.530983    3.052556    1.198436
H         0.253150    3.542750   -0.475888
H         1.876298    3.119667    0.056963
C         2.919353   -0.654393    0.042884
H         1.038259   -0.917107    1.066332
H         1.944381    0.474458    1.604403
C         2.531442   -1.565961   -1.119605
H         1.909916   -2.394876   -0.774509
H         3.417959   -1.988941   -1.595401
H         1.970458   -1.018397   -1.879182
C         3.802773    0.480525   -0.471648
H         3.291919    1.059892   -1.243678
H         4.723857    0.089379   -0.907154
H         4.077455    1.161340    0.336647
C         3.700906   -1.467079    1.075275
H         3.093883   -2.284310    1.469029
H         4.005539   -0.841402    1.916194
H         4.601362   -1.899311    0.634282
H        -4.988366   -0.414728    0.182402
C        -3.363534   -2.578029    0.013871
H        -2.495843   -3.220736   -0.127505
H        -4.078739   -2.798604   -0.779962
H        -3.833776   -2.852963    0.959671
