18
0 1
C         2.658982    0.000001   -0.394585
C         1.996612   -1.195266   -0.171896
C         0.684694   -1.193434    0.268483
C         1.996612    1.195266   -0.171895
C         0.684694    1.193434    0.268484
C         0.009002   -0.000001    0.498102
H         3.684957    0.000001   -0.737195
H         2.504388   -2.136031   -0.339834
H         0.175544   -2.134098    0.440211
H         2.504387    2.136032   -0.339832
H         0.175543    2.134097    0.440212
C        -1.425558   -0.000001    0.939948
Si        -2.614160    0.000000   -0.518313
H        -2.392328    1.203642   -1.349102
H        -4.015860   -0.000003   -0.038430
H        -2.392324   -1.203636   -1.349108
H        -1.638152    0.876585    1.554813
H        -1.638152   -0.876589    1.554811
