17
0 2
Si        -1.341807    0.429835   -0.484181
Cl        -2.426611   -1.221086    0.146957
C        -1.968194    1.938419    0.420648
C         0.466309    0.119325   -0.184219
H        -3.032319    2.080394    0.237885
H        -1.443587    2.835222    0.090398
H        -1.811806    1.820395    1.494839
C         0.993311   -1.166574   -0.063727
C         2.350945   -1.362790    0.114102
C         3.209873   -0.277333    0.168139
C         2.705635    1.006710    0.043295
C         1.347993    1.201369   -0.134824
H         0.973575    2.213446   -0.231632
H         0.332187   -2.022615   -0.098357
H         2.740818   -2.367329    0.213152
H         4.271668   -0.431751    0.307600
H         3.371925    1.858243    0.085901
