20
0 2
Si         1.652656   -0.000001   -0.427260
C        -0.193960   -0.000000   -0.171340
C        -0.914043   -1.194746   -0.092448
C        -2.288005   -1.197364    0.068167
C        -2.979898    0.000000    0.148997
C        -2.288005    1.197365    0.068169
C        -0.914043    1.194746   -0.092446
H        -0.393730    2.142772   -0.152615
H        -0.393731   -2.142772   -0.152619
H        -2.821755    2.136792    0.131651
C         2.434114    1.546199    0.291888
H         2.242728    1.608676    1.366557
H         2.046814    2.453083   -0.171656
H         3.513837    1.534401    0.140986
H        -2.821756   -2.136791    0.131647
H        -4.054615    0.000001    0.274530
C         2.434114   -1.546199    0.291891
H         2.242728   -1.608673    1.366561
H         3.513837   -1.534402    0.140988
H         2.046813   -2.453084   -0.171650
