23
0 1
Si         0.997749    0.000000    0.008719
Si        -1.291708    0.000000   -0.491392
C         1.813740   -1.531579   -0.709213
C         1.231160    0.000000    1.873935
C         1.813740    1.531579   -0.709213
C        -2.127598    1.537220    0.193494
C        -2.127598   -1.537220    0.193494
H        -1.464126    0.000000   -1.971340
H         1.701943    1.569144   -1.793879
H         2.882191    1.544784   -0.483858
H         1.377642    2.443819   -0.298930
H         1.377642   -2.443819   -0.298930
H         2.882191   -1.544783   -0.483859
H         1.701942   -1.569145   -1.793879
H        -2.030447   -1.582778    1.279596
H        -1.685371   -2.445258   -0.218349
H        -3.191964   -1.546826   -0.046194
H        -2.030448    1.582778    1.279596
H        -3.191964    1.546826   -0.046194
H        -1.685371    2.445258   -0.218349
H         0.779373   -0.881262    2.332285
H         0.779373    0.881262    2.332284
H         2.292159   -0.000000    2.132447
