24
0 2
C        -3.942915    0.999563    0.355838
C        -3.989642   -0.354563    0.063597
C        -2.819880   -1.051399   -0.173209
C        -2.720463    1.646862    0.414415
C        -1.549875    0.946145    0.180553
C        -1.575176   -0.417840   -0.115789
H        -4.857663    1.547535    0.539431
H        -4.941591   -0.867310    0.019207
H        -2.874807   -2.109095   -0.403891
H        -2.677128    2.702498    0.649041
H        -0.603449    1.466368    0.247232
C         3.737162   -0.341981    0.856367
H         4.482308   -0.762317    1.519054
C         2.536748   -1.002882    0.661552
C         3.982769    0.855942    0.207080
H         2.358205   -1.937222    1.179465
H         4.920430    1.374012    0.359172
C         1.554397   -0.481121   -0.182406
C         3.025476    1.386223   -0.643119
C         1.829252    0.721231   -0.839525
H         3.215679    2.318006   -1.159533
H         1.100479    1.142018   -1.521837
Si        -0.035219   -1.403004   -0.460913
H        -0.036522   -2.669514    0.313332
