25
0 1
C         3.845863   -1.070367   -0.182759
C         3.799752    0.032861    0.651475
C         2.653047    0.808127    0.709772
C         2.742969   -1.396406   -0.955815
C         1.600759   -0.618499   -0.893363
C         1.535492    0.499637   -0.062299
H         4.739405   -1.679084   -0.228782
H         4.656756    0.288748    1.260711
H         2.628499    1.665396    1.371795
H         2.773501   -2.260511   -1.606583
H         0.743065   -0.892431   -1.496315
C        -3.799722    0.032838   -0.651539
H        -4.656700    0.288694   -1.260822
C        -2.653014    0.808099   -0.709829
C        -3.845868   -1.070347    0.182752
H        -2.628438    1.665334   -1.371895
H        -4.739413   -1.679061    0.228769
C        -1.535490    0.499648    0.062304
C        -2.743006   -1.396347    0.955869
C        -1.600793   -0.618445    0.893423
H        -2.773566   -2.260417    1.606682
H        -0.743124   -0.892346    1.496425
Si         0.000005    1.559315    0.000004
H        -0.105702    2.430237   -1.194708
H         0.105717    2.430234    1.194717
