22
0 2
Si        -0.000000   -0.434675   -0.467248
C        -1.539078   -1.000453    0.465915
C        -2.865836   -0.542054   -0.136133
H        -3.716646   -0.900336    0.445212
H        -2.986540   -0.908474   -1.156722
H        -2.932926    0.546455   -0.173217
H        -1.451790   -0.637042    1.496596
H        -1.514950   -2.090895    0.536269
C         1.539078   -1.000454    0.465914
C         2.865836   -0.542054   -0.136133
H         2.932926    0.546454   -0.173217
H         2.986540   -0.908474   -1.156722
H         3.716646   -0.900337    0.445211
H         1.514949   -2.090896    0.536269
H         1.451790   -0.637043    1.496596
C         0.000000    1.441393   -0.676250
C         0.000000    2.208295    0.650031
H         0.878955    1.969327    1.250896
H        -0.878954    1.969327    1.250896
H         0.000000    3.287602    0.487679
H        -0.870350    1.725874   -1.272168
H         0.870350    1.725874   -1.272168
