41
0 1
Si        -0.244818    2.213891   -0.039958
Si         0.000217   -0.000532   -0.766678
C         1.361477    3.165439   -0.245609
C        -0.722371    2.226421    1.777335
C        -1.586446    3.072886   -1.031960
Si        -1.795540   -1.319030   -0.039939
Si         2.040404   -0.895174   -0.039889
H         0.000194   -0.000361   -2.259702
H        -1.332364    3.101197   -2.092455
H        -1.720073    4.102231   -0.691929
H        -2.544521    2.561334   -0.934685
H         2.158745    2.741431    0.366261
H         1.231909    4.207644    0.054307
H         1.698581    3.156459   -1.283103
H         0.013710    1.703566    2.389382
H        -1.688799    1.747046    1.939020
H        -0.795643    3.251109    2.147836
C         2.062571   -2.761773   -0.247586
H         3.030318   -3.170335    0.051537
H         1.886070   -3.048176   -1.285339
H         1.297266   -3.241407    0.364017
C         2.288771   -0.489385    1.777841
H         2.354189    0.587307    1.940438
H         3.213810   -0.936346    2.148183
H         1.468730   -0.867929    2.389374
C         3.454550   -0.160341   -1.030918
H         3.489124    0.925143   -0.932631
H         3.352379   -0.393656   -2.091641
H         4.413254   -0.558451   -0.691194
C        -3.422189   -0.402958   -0.246700
H        -3.453542    0.499491    0.365191
H        -4.260527   -1.035825    0.052640
H        -3.582059   -0.106437   -1.284302
C        -1.868558   -2.910709   -1.031533
H        -2.019186   -2.705007   -2.092193
H        -2.693714   -3.540714   -0.692063
H        -0.946717   -3.484949   -0.933357
C        -1.568231   -1.738435    1.777500
H        -1.485638   -0.839437    2.389656
H        -0.668675   -2.333832    1.939582
H        -2.417956   -2.316114    2.147448
