8
0 1
Si        -1.167586   -0.010656    0.000007
Si         1.167586    0.010656   -0.000007
H        -1.670594   -1.210733    0.705534
H        -1.681421   -0.028631   -1.388019
H        -1.692542    1.193325    0.682520
H         1.692542   -1.193325   -0.682520
H         1.681421    0.028631    1.388019
H         1.670594    1.210733   -0.705534
