15
0 1
Si        -0.331619   -0.000001    0.052467
N         1.240024    0.000018   -0.924229
O         2.261489    0.000004   -0.279046
C        -1.202599    1.542933   -0.516899
H        -0.658914    2.439066   -0.215455
H        -2.204602    1.599795   -0.088013
H        -1.300420    1.556330   -1.602850
C        -1.202616   -1.542893   -0.516986
H        -1.300446   -1.556223   -1.602937
H        -2.204615   -1.599774   -0.088095
H        -0.658935   -2.439049   -0.215602
C         0.043496   -0.000054    1.870959
H         0.623197    0.879856    2.150740
H         0.623175   -0.879994    2.150694
H        -0.877545   -0.000058    2.456492
