13
0 2
Si         0.000068    0.000009   -0.426162
C         0.228806   -1.762909    0.176865
H         1.172516   -2.183622   -0.171130
H        -0.576106   -2.410617   -0.171392
H         0.232433   -1.792152    1.270737
C        -1.641201    0.683278    0.176528
H        -2.477327    0.076588   -0.172059
H        -1.799429    1.704359   -0.171394
H        -1.668841    0.694321    1.270394
C         1.412313    1.079621    0.177009
H         2.375747    0.706281   -0.170996
H         1.435601    1.097576    1.270886
H         1.304948    2.107201   -0.171189
