18
0 1
Si         0.376425    0.000000    0.003308
O        -1.052260    0.000000   -0.823343
C         1.697508    0.000001   -1.302865
C         0.493790   -1.523638    1.077438
C         0.493789    1.523637    1.077439
C        -2.328750    0.000000   -0.235021
H        -3.075248    0.000000   -1.028797
H        -2.487845    0.887897    0.384748
H        -2.487845   -0.887897    0.384747
H         0.404792    2.433053    0.481058
H         1.453388    1.558286    1.597148
H        -0.288502    1.544137    1.838383
H         1.614129   -0.881597   -1.939655
H         2.693432    0.000000   -0.856084
H         0.404793   -2.433054    0.481055
H        -0.288502   -1.544139    1.838382
H         1.614129    0.881600   -1.939654
H         1.453388   -1.558287    1.597147
