8
0 2
O        -1.247591   -0.363310   -0.000001
C        -0.177826    0.477334   -0.000000
C         1.180511   -0.194528   -0.000000
H        -0.301153    1.153919    0.864702
H        -0.301150    1.153931   -0.864693
H         1.293299   -0.823011    0.883090
H         1.980319    0.547816    0.000005
H         1.293303   -0.823002   -0.883095
