13
0 2
Si         0.000014   -0.000008   -0.426089
C         1.551109   -0.868581    0.176841
H         1.590386   -1.900980   -0.171459
H         1.576938   -0.883164    1.270706
H         2.451861   -0.362475   -0.171304
C        -1.527783   -0.909008    0.176744
H        -1.539877   -1.942123   -0.171435
H        -2.441483   -0.426781   -0.171556
H        -1.553345   -0.924125    1.270610
C        -0.023347    1.777598    0.176756
H         0.851140    2.327764   -0.171515
H        -0.023704    1.807320    1.270623
H        -0.911990    2.304618   -0.171475
