13
0 2
Si        -0.000027    0.000010   -0.426093
C        -1.776989    0.052350    0.176824
C         0.933848    1.512713    0.176780
C         0.843171   -1.565079    0.176742
H         0.322621   -2.457452   -0.171689
H         0.857032   -1.591315    1.270615
H         1.874884   -1.620993   -0.171312
H        -2.289499    0.949406   -0.171487
H        -1.806621    0.053368    1.270686
H         0.466622    2.434208   -0.171434
H         1.966992    1.507912   -0.171495
H        -2.341311   -0.813131   -0.171292
H         0.949479    1.537955    1.270639
