15
0 1
Si        -0.006783   -0.000000    0.033250
O        -0.136559   -0.000006    1.684843
H         0.661703   -0.000008    2.214422
C         0.905979    1.523187   -0.543245
H         0.402296    2.431474   -0.209068
H         0.966841    1.555620   -1.632993
H         1.927811    1.547407   -0.158788
C        -1.759239   -0.000015   -0.583793
H        -2.295624    0.881507   -0.230216
H        -2.295607   -0.881551   -0.230224
H        -1.793534   -0.000010   -1.674745
C         0.906009   -1.523166   -0.543253
H         1.927841   -1.547369   -0.158796
H         0.966872   -1.555593   -1.633001
H         0.402343   -2.431465   -0.209081
