14
0 1
Si         0.912759   -0.729298    0.997020
Si        -0.912759    0.729298    0.997020
Si        -0.912759    2.040533   -0.936012
H        -0.873485    1.601478    2.195214
H        -2.165509   -0.062595    1.046424
H         0.360656    2.788129   -1.041495
H        -2.032356    3.008349   -0.926620
H        -1.045651    1.172365   -2.127630
Si         0.912759   -2.040533   -0.936012
H         0.873485   -1.601478    2.195214
H         2.165509    0.062595    1.046424
H        -0.360656   -2.788129   -1.041495
H         2.032356   -3.008349   -0.926620
H         1.045651   -1.172365   -2.127630
