8
0 1
B         0.069502    0.405701    0.170165
B        -0.352978    1.945703   -0.150650
C        -1.214019   -0.387556    0.085892
O        -2.195175   -0.910441   -0.091281
Cl         1.607411   -0.490354   -0.039995
H        -1.487303    2.292116   -0.035906
H         0.501247    2.749428   -0.343606
H        -0.077043    1.146322    1.176743
