22
0 1
B         0.786009   -1.018682   -0.309413
B        -0.786009   -1.018682    0.309413
N        -1.786336   -0.124368   -0.061444
N         1.786336   -0.124368    0.061443
C        -3.142305   -0.176570    0.447602
H        -3.407395    0.760384    0.947673
H        -3.237563   -0.992796    1.157531
H        -3.859244   -0.330394   -0.364939
C         3.142305   -0.176570   -0.447601
H         3.407395    0.760384   -0.947673
H         3.237563   -0.992797   -1.157531
H         3.859244   -0.330394    0.364940
C        -1.595539    0.952672   -1.011540
H        -0.568539    0.963682   -1.366944
H        -1.815815    1.921524   -0.551892
H        -2.261297    0.837610   -1.872342
C         1.595538    0.952672    1.011540
H         0.568539    0.963682    1.366943
H         1.815815    1.921524    0.551892
H         2.261297    0.837611    1.872342
H         1.120550   -1.852633   -1.108332
H        -1.120550   -1.852633    1.108332
