12
0 2
B         0.384279    1.556313   -0.108902
C         0.418477    0.077782   -0.006028
N        -0.587805   -0.727341    0.029093
C         1.815302   -0.510112    0.003538
H         2.593349    0.256134    0.032485
H         1.968349   -1.113811   -0.890423
H         1.928845   -1.149929    0.877699
C        -1.897585   -0.127415   -0.004083
H        -2.516879   -0.635576   -0.745114
H        -1.893216    0.948440   -0.249513
H        -2.387335   -0.253576    0.964254
H         0.482969    2.616612    0.390912
