14
0 1
B         2.367870   -0.128135    0.000003
B         0.831472   -0.770696   -0.000002
N        -0.365578   -0.069773   -0.000000
C        -1.671974   -0.697562   -0.000008
H        -2.246201   -0.401483    0.883135
H        -1.562313   -1.777956   -0.000012
H        -2.246195   -0.401476   -0.883152
C        -0.442364    1.377195    0.000008
H         0.555722    1.810360    0.000013
H        -0.975379    1.741127    0.883456
H        -0.975374    1.741138   -0.883438
H         0.750963   -1.971681   -0.000011
H         2.973572    0.082367   -1.010077
H         2.973568    0.082365    1.010085
