10
0 1
B         0.491558   -0.667649    1.288078
B        -0.491554    0.667618    1.288096
S        -1.924353    0.848322    0.248156
C        -1.912600   -0.608233   -0.630148
N        -1.921664   -1.585100   -1.231483
S         1.924353   -0.848329    0.248127
C         1.912598    0.608249   -0.630139
N         1.921663    1.585132   -1.231448
H        -0.336019    1.612368    1.990450
H         0.336026   -1.612417    1.990409
