11
0 2
B         0.592609    1.806825    0.242292
P         0.062352    0.208273   -0.301896
C         1.085779   -1.249521    0.132635
H         0.949243   -1.541035    1.173306
H         2.133222   -1.005994   -0.032569
H         0.822294   -2.091602   -0.506997
C        -1.649104   -0.243601    0.144748
H        -2.290513    0.620281   -0.014812
H        -1.726033   -0.553515    1.186323
H        -1.997361   -1.056922   -0.490958
H         1.590768    2.429298    0.338386
