11
0 2
B         0.496017    1.508969   -0.000005
N         0.042459    0.216408   -0.000001
C         0.922107   -0.943347    0.000005
H         0.743704   -1.560701    0.884520
H         1.959439   -0.620594    0.000006
H         0.743707   -1.560708   -0.884506
C        -1.366659   -0.134578   -0.000002
H        -1.968671    0.769720   -0.000008
H        -1.615456   -0.726969    0.884751
H        -1.615452   -0.726980   -0.884748
H         1.642745    1.834089   -0.000004
