7
0 1
B         1.985235   -0.216374   -0.000011
B         0.547133    0.590750   -0.000018
S        -1.030191   -0.219687    0.000014
H        -1.837107    0.850826   -0.000012
H         2.548585   -0.495853    1.014451
H         2.548588   -0.495864   -1.014469
H         0.561148    1.784006   -0.000043
