8
0 1
B        -0.009689   -0.006712   -0.000011
B        -1.699772   -0.043178   -0.000001
O         0.759031    1.129093    0.000005
H         0.280125    1.959870    0.000007
O         0.655304   -1.194125    0.000000
H         1.613950   -1.086593    0.000003
H        -2.330737   -0.051814   -1.012519
H        -2.330724   -0.051756    1.012526
