9
0 2
B         1.509722   -0.885556   -0.000047
B         0.170771    0.010258    0.000004
O         0.253285    1.381390    0.000006
C        -1.238705   -0.709617    0.000007
H        -1.193662   -1.799089   -0.000013
H        -1.814736   -0.408798   -0.880655
H        -1.814712   -0.408830    0.880695
H        -0.603589    1.817529    0.000027
H         2.430181   -1.617738    0.000067
