18
0 1
B         0.551606   -1.172763   -0.551778
B        -0.597853   -1.153119    0.543844
B        -1.783790    0.009110    0.137115
O        -1.490557    1.328923    0.025246
C        -3.267691   -0.435974   -0.118934
H        -3.761562   -0.596998    0.844776
H        -3.341154   -1.383154   -0.657476
H        -3.831810    0.324288   -0.661498
B         1.757759   -0.051571   -0.158624
O         1.385017    1.268826   -0.076050
C         3.237532   -0.474829    0.145663
H         3.296643   -1.414730    0.696983
H         3.805994    0.279625    0.697027
H         3.753648   -0.650133   -0.803732
H        -0.548536    1.535082    0.111158
H         2.099895    1.870855    0.157968
H        -0.671564   -1.693239    1.604251
H         0.585115   -1.747060   -1.596177
