11
0 2
B         0.496017    1.508969   -0.000002
N         0.042459    0.216408   -0.000000
C        -1.366659   -0.134578   -0.000000
H        -1.615453   -0.726977   -0.884748
H        -1.968671    0.769720   -0.000003
H        -1.615454   -0.726972    0.884750
C         0.922107   -0.943347    0.000002
H         1.959439   -0.620594    0.000001
H         0.743706   -1.560707   -0.884510
H         0.743706   -1.560703    0.884516
H         1.642745    1.834089   -0.000002
