13
0 2
B        -1.807187    1.709835    0.000005
C        -0.564496    0.832273    0.000000
C        -0.624522   -0.562232    0.000001
C         0.722823    1.392968   -0.000001
C         1.859713    0.611771   -0.000003
C         1.737940   -0.770560   -0.000002
C         0.491004   -1.370356   -0.000000
H         0.373413   -2.444725   -0.000000
H         0.806187    2.471678   -0.000002
H         2.838495    1.070645   -0.000004
H         2.624345   -1.391316   -0.000003
F        -1.820850   -1.162977    0.000001
H        -2.953635    1.408144    0.000007
