14
0 1
B        -0.794148    0.590770    0.231471
B         0.794148    0.590772   -0.231466
C         1.923059   -0.282314    0.358265
C        -1.923061   -0.282301   -0.358276
C        -3.171429   -0.211525    0.105420
C         3.171430   -0.211522   -0.105419
H        -1.731369   -0.991143   -1.159924
H        -3.429188    0.475200    0.903481
H        -3.977096   -0.825848   -0.283158
H         1.731362   -0.991178    1.159892
H         3.429194    0.475227   -0.903458
H         3.977096   -0.825855    0.283148
H         1.132951    1.350950   -1.098834
H        -1.132942    1.350908    1.098879
