10
0 1
B         2.388416   -0.000015   -0.360409
B         1.105884   -0.000007    0.624775
B        -0.504630   -0.000006    0.107220
O        -1.120363    1.203910   -0.089386
O        -1.120398   -1.203901   -0.089382
H        -2.040851    1.178937   -0.369222
H        -2.040881   -1.178900   -0.369230
H         1.289966    0.000019    1.809419
H         2.884719    1.015317   -0.749371
H         2.884781   -1.015305   -0.749392
