12
0 2
B         0.473029    1.737196    0.000008
B         0.480068    0.123029   -0.000009
O        -0.623012   -0.680006   -0.000009
C         1.884795   -0.599343    0.000005
H         2.746489    0.069250    0.000014
H         1.962475   -1.244550   -0.878902
H         1.962458   -1.244549    0.878914
C        -1.922352   -0.128925   -0.000002
H        -2.640689   -0.946429   -0.000030
H        -2.087395    0.483233   -0.890825
H        -2.087407    0.483183    0.890852
H         0.588021    2.908400    0.000032
