7
0 2
B        -1.721121   -0.110700   -0.094726
B        -0.080553   -0.013864   -0.003270
O         0.633676    1.160091    0.012576
H         0.119895    1.969148   -0.014422
O         0.631586   -1.177639    0.007106
H         1.583598   -1.027639    0.014319
H        -2.817211   -0.178303    0.332632
