11
0 2
B         2.436441   -0.768011   -0.626492
C         1.308138   -0.085875    0.109295
O         1.532934    0.926861    0.719731
O         0.058709   -0.672471    0.045613
C        -1.070738    0.104934   -0.156464
O        -1.027341    1.181268   -0.652187
C        -2.288175   -0.633144    0.292888
H        -2.305551   -1.629649   -0.145980
H        -3.175416   -0.076365    0.008914
H        -2.253492   -0.751634    1.376129
H         3.342498   -1.503053   -0.486178
