9
0 2
B         1.597505    0.627440   -0.014468
C         0.763758   -0.553100    0.001975
N        -0.529933   -0.726496   -0.002373
C        -1.322202    0.475755   -0.000271
H        -2.122836    0.392075   -0.736949
H        -0.747457    1.390977   -0.218225
H        -1.798713    0.597494    0.976334
H         1.369804   -1.470487    0.012348
H         2.371871    1.502284    0.045222
