8
0 1
B        -1.471564   -0.214477    0.000003
B        -0.000000    0.468933   -0.000033
B         1.471563   -0.214479    0.000027
H         2.042417   -0.468217    1.017327
H         2.042440   -0.468352   -1.017227
H         0.000010    1.673255   -0.000115
H        -2.042423   -0.468359   -1.017259
H        -2.042436   -0.468209    1.017295
