8
0 1
B        -1.773724    0.954928    0.000010
B        -1.208447   -0.611755   -0.000001
O         0.139446   -0.966565   -0.000007
C         1.065856   -0.070110   -0.000003
N         1.909752    0.707039    0.000001
H        -2.020538    1.524941    1.016193
H        -2.020549    1.524951   -1.016163
H        -1.927023   -1.561847   -0.000005
