22
0 1
B        -0.734127    0.369596    1.198248
B         0.734126   -0.369588    1.198250
P         1.942504   -0.228139   -0.167014
P        -1.942506    0.228140   -0.167014
C         1.946011    1.415613   -0.971346
H         2.382266    2.183128   -0.332312
H         0.918311    1.691191   -1.202164
H         2.507167    1.375346   -1.904153
C         3.668479   -0.497069    0.381106
H         3.707065   -1.404449    0.981518
H         4.044138    0.334071    0.977338
H         4.320335   -0.630337   -0.481580
C        -3.668482    0.497061    0.381108
H        -3.707072    1.404441    0.981520
H        -4.044135   -0.334081    0.977340
H        -4.320339    0.630325   -0.481578
C        -1.946005   -1.415611   -0.971347
H        -0.918304   -1.691183   -1.202166
H        -2.507162   -1.375347   -1.904152
H        -2.382255   -2.183129   -0.332311
H        -1.007994    1.197734    2.016747
H         1.007986   -1.197736    2.016741
