19
0 1
B        -2.327830   -0.466687   -0.437862
B        -3.198651    0.866157   -0.826478
C        -1.534807   -0.684654    0.904051
C        -0.131392   -0.310849    0.476782
C         0.725810   -1.261285   -0.068248
C         0.312406    1.003538    0.570531
C         1.998398   -0.913082   -0.483798
C         2.433395    0.397218   -0.372786
C         1.584831    1.355120    0.155421
H         0.390362   -2.286851   -0.159707
H         2.653841   -1.668893   -0.896140
H         3.428583    0.670197   -0.697137
H         1.914143    2.381933    0.244979
H        -0.346461    1.758609    0.981666
H        -1.554556   -1.721960    1.237489
H        -1.852401   -0.047534    1.728446
H        -2.720972    1.853443   -1.297862
H        -4.382715    0.887385   -0.656893
H        -2.229257   -1.339716   -1.254856
