8
0 1
B        -0.784131    0.425946    0.323344
B         0.784131    0.425946   -0.323344
O         1.734641   -0.370696    0.226102
H         2.598199   -0.298986   -0.190644
O        -1.734640   -0.370698   -0.226101
H        -2.598200   -0.298984    0.190644
H         1.105818    1.134826   -1.243051
H        -1.105820    1.134835    1.243044
