8
0 1
B        -0.750540    0.801600    0.362187
B         0.750540    0.801600   -0.362188
S         1.995008   -0.352123    0.142458
H         3.007151    0.036435   -0.647036
S        -1.995009   -0.352122   -0.142459
H        -3.007148    0.036430    0.647043
H         1.025883    1.589530   -1.211017
H        -1.025878    1.589521    1.211027
