15
0 1
B        -2.248449   -1.227554   -0.338083
B        -1.193074   -0.477931    0.627138
B         0.039146    0.554851    0.116177
O         1.305735    0.156077   -0.145328
C        -0.279421    2.080824   -0.091230
H        -1.058533    2.461347    0.571062
H        -0.646430    2.222480   -1.113356
H         0.614264    2.696222    0.023008
C         1.732031   -1.185779   -0.026683
H         2.385428   -1.284242    0.840519
H         2.291568   -1.456339   -0.921313
H         0.888097   -1.872269    0.081332
H        -1.317071   -0.594212    1.815924
H        -3.245461   -0.695473   -0.726796
H        -2.061512   -2.343235   -0.726441
