10
0 1
B        -0.444268    1.161482    0.724539
B         0.444268    1.161482   -0.724538
O         1.575857    0.384215   -0.906401
C         1.987249   -0.434118    0.004221
N         2.368065   -1.162565    0.803587
O        -1.575857    0.384213    0.906402
C        -1.987250   -0.434118   -0.004221
N        -2.368065   -1.162563   -0.803589
H         0.202491    1.861537   -1.652689
H        -0.202488    1.861532    1.652693
