10
0 1
B        -0.741417   -0.479385   -0.328001
B         0.741417   -0.479385    0.328001
B         2.029876    0.422873   -0.078040
H         2.822200    0.066595   -0.896347
H         2.234902    1.475617    0.447631
B        -2.029876    0.422873    0.078040
H        -2.822200    0.066595    0.896348
H        -2.234902    1.475617   -0.447631
H         0.899499   -1.259654    1.228894
H        -0.899499   -1.259653   -1.228895
