8
0 1
B         2.439821   -0.589093   -0.000000
B         1.314633    0.630951   -0.000021
N        -0.076096    0.396187    0.000030
C        -1.199202    0.007561    0.000007
O        -2.309183   -0.341505   -0.000011
H         2.880284   -1.035865   -1.015062
H         2.880340   -1.035761    1.015084
H         1.668454    1.775692   -0.000074
