8
0 1
B        -2.022773   -0.239336    0.013962
B        -0.632240    0.614830    0.010247
P         1.081533   -0.128238   -0.105740
H         1.008451   -1.303495    0.665208
H         1.824436    0.670736    0.782158
H        -0.657630    1.808252   -0.041681
H        -2.519812   -0.680440   -0.977568
H        -2.603369   -0.448945    1.036929
