7
0 2
B         1.516873    0.595660   -0.000009
S         0.239336   -0.547407    0.000007
C        -1.337982    0.386755   -0.000004
H        -1.902340    0.113475   -0.888203
H        -1.138328    1.453767   -0.000033
H        -1.902326    0.113521    0.888217
H         1.557146    1.778915   -0.000017
