8
0 1
B        -1.535295   -0.160193    0.000001
B         0.003385    0.470488    0.000002
N         1.210498   -0.218631   -0.000002
H         1.287573   -1.221153   -0.000002
H         2.102424    0.245842   -0.000004
H         0.079480    1.672111   -0.000003
H        -2.141703   -0.358937    1.011073
H        -2.141708   -0.358924   -1.011069
