24
0 1
B         0.678009    1.436693    0.427590
B        -0.678008    1.436641   -0.427764
B        -1.956610    0.396709   -0.059235
O        -2.069921   -0.822870   -0.646896
C        -3.045265    0.767709    1.009686
H        -3.348459    1.815248    0.962041
H        -2.625128    0.620934    2.010463
H        -3.931719    0.137567    0.925736
C        -1.139622   -1.280689   -1.610339
H        -1.641845   -2.000031   -2.254356
H        -0.295696   -1.773384   -1.124763
H        -0.765192   -0.459052   -2.226289
B         1.956612    0.396717    0.059187
O         2.069923   -0.822789    0.646999
C         3.045265    0.767584   -1.009782
H         2.625138    0.620633   -2.010537
H         3.931736    0.137480   -0.925726
H         3.348428    1.815139   -0.962303
C         1.139620   -1.280489    1.610495
H         1.641830   -1.999783    2.254576
H         0.295676   -1.773208    1.124976
H         0.765219   -0.458782    2.226369
H        -0.793203    2.151930   -1.383577
H         0.793205    2.152100    1.383314
