8
0 1
B        -3.051662   -0.623409    0.000008
B        -1.934909    0.604108    0.000041
N        -0.546847    0.370563   -0.000030
C         0.612626    0.130758   -0.000016
S         2.146969   -0.180524   -0.000003
H        -2.288717    1.748289    0.000125
H        -3.488841   -1.071004    1.015704
H        -3.488914   -1.070880   -1.015712
