10
0 1
B         0.854902    0.000000    0.000001
B        -0.854902    0.000000   -0.000001
O        -1.510379   -0.848216    0.848177
H        -2.472221   -0.821180    0.821110
O         1.510379   -0.848217   -0.848177
H         2.472221   -0.821180   -0.821110
O        -1.510377    0.848216   -0.848181
H        -2.472219    0.821179   -0.821116
O         1.510378    0.848216    0.848180
H         2.472220    0.821179    0.821115
