24
0 1
B         0.697937   -1.180936    0.427101
B        -0.697941   -1.180940   -0.427089
C        -1.968883   -0.340987   -0.038850
N        -2.228308    0.833426   -0.428873
C         1.968880   -0.340990    0.038851
N         2.228312    0.833423    0.428867
C        -2.939402   -1.040413    0.875179
H        -2.465629   -1.295886    1.825953
H        -3.291511   -1.973914    0.429980
H        -3.790208   -0.388020    1.061706
C         2.939392   -1.040425   -0.875179
H         2.465612   -1.295901   -1.825949
H         3.291500   -1.973926   -0.429978
H         3.790200   -0.388037   -1.061715
C        -1.288408    1.483524   -1.314696
H        -1.772278    1.677773   -2.273292
H        -0.366329    0.914661   -1.505356
H        -1.004490    2.450254   -0.897304
C         1.288420    1.483530    1.314691
H         1.772295    1.677782    2.273284
H         0.366340    0.914671    1.505359
H         1.004503    2.450259    0.897296
H        -0.804276   -1.926869   -1.358430
H         0.804269   -1.926853    1.358452
