7
0 2
B        -1.516873    0.595660   -0.000002
S        -0.239336   -0.547407    0.000002
C         1.337982    0.386755   -0.000001
H         1.902332    0.113503    0.888211
H         1.138328    1.453767   -0.000007
H         1.902334    0.113494   -0.888209
H        -1.557146    1.778915   -0.000006
