8
0 1
B         1.666748    1.403989   -0.000011
B         1.499455   -0.234823   -0.000016
S        -0.068970   -1.092493    0.000002
C        -1.175092    0.200498    0.000009
N        -1.938433    1.057244    0.000013
H         2.406588   -1.005282   -0.000031
H         1.742753    2.017832   -1.017864
H         1.742755    2.017824    1.017847
