7
0 1
C         0.679634    0.000007   -0.016214
B        -0.867623    0.000004   -0.021262
H         1.141423   -0.893934   -0.434526
H         0.939187   -0.000152    1.055227
H         1.141448    0.894039   -0.434299
H        -1.480859   -1.023626    0.008596
H        -1.480892    1.023612    0.008600
