15
0 1
C         0.822650   -0.014035    0.174998
B        -0.742154    0.007229   -0.056469
C        -1.484659    1.378079   -0.032245
H        -0.989802    2.137012    0.574129
H        -2.531621    1.300544    0.262685
H        -1.481065    1.755019   -1.064298
O         1.159879   -0.123404    1.340391
C         1.837387    0.086705   -0.928380
H         1.678125   -0.711667   -1.657153
H         2.845886    0.024630   -0.522931
H         1.709615    1.032588   -1.460883
C        -1.478701   -1.358182   -0.211928
H        -0.928586   -2.102921   -0.789424
H        -2.493209   -1.271620   -0.601053
H        -1.557662   -1.767899    0.803470
