13
0 1
C        -0.994327    0.000000   -0.000000
C        -0.259445   -1.186506   -0.000000
C         1.123090   -1.137570    0.000000
N         1.807670    0.000000    0.000000
C         1.123090    1.137570    0.000000
C        -0.259445    1.186506   -0.000000
H        -0.766366   -2.142651   -0.000000
H         1.709012   -2.049849    0.000000
H         1.709012    2.049849    0.000000
H        -0.766366    2.142651   -0.000000
B        -2.534602   -0.000000   -0.000000
H        -3.131875   -1.030425   -0.000000
H        -3.131875    1.030424   -0.000000
