8
0 2
C        -0.027198    0.881145    0.000000
C        -0.027198   -0.362218    0.761805
C        -0.027198   -0.362218   -0.761805
H         0.629880    1.735004    0.000000
H         0.872911   -0.657431   -1.289947
H        -0.943072   -0.680200   -1.247458
H        -0.943072   -0.680200    1.247458
H         0.872911   -0.657431    1.289947
