14
0 1
C         0.497602   -0.023043    0.402897
B        -0.900431   -0.701661    0.212653
O        -1.958421    0.032621   -0.205778
C         0.553481    1.438128   -0.032324
H        -0.212352    2.035416    0.462040
H         0.388803    1.530273   -1.107645
C         1.606326   -0.850758   -0.256848
H         0.676081   -0.066601    1.488199
H         1.498388   -0.854229   -1.344061
H         1.592012   -1.888360    0.079428
H         2.591265   -0.437990   -0.030654
H         1.526540    1.880265    0.191925
H        -2.775837   -0.466510   -0.280251
H        -1.059832   -1.870888    0.441627
