8
0 2
O        -0.992865   -0.643997    0.000003
C        -0.830948    0.720850   -0.000001
C         0.227769   -1.148495    0.000002
C         0.482581    1.021681   -0.000002
C         1.204262   -0.223872   -0.000003
H         0.909203    2.010560   -0.000003
H        -1.735251    1.301027   -0.000001
H         2.266982   -0.380591   -0.000005
