19
0 1
C        -2.336645    1.052487   -0.516824
C        -1.037857    1.282454   -0.096344
C        -2.918478   -0.191126   -0.337300
C        -2.189583   -1.200518    0.268009
C        -0.890790   -0.965705    0.687906
C        -0.292773    0.279668    0.514682
H        -0.592717    2.259348   -0.240477
B         2.194543   -0.050446   -0.114960
O         3.509970    0.225328    0.094668
O         1.858393   -0.804072   -1.199234
H        -2.897560    1.850289   -0.985846
H        -2.634717   -2.175192    0.419567
H        -3.933754   -0.371354   -0.663922
H        -0.331775   -1.760461    1.168036
C         1.134610    0.507397    0.917305
H         1.338828    0.033525    1.881925
H         1.329448    1.571211    1.067420
H         0.910413   -0.950302   -1.284167
H         4.081322   -0.162825   -0.575818
