9
0 2
B         0.000000   -0.561891   -0.037100
C        -1.395850    0.097367   -0.009562
H        -1.629242    0.264430    1.050884
H        -2.200220   -0.522426   -0.404183
H        -1.423236    1.078520   -0.496579
C         1.395850    0.097367   -0.009562
H         1.423238    1.078511   -0.496597
H         2.200225   -0.522432   -0.404165
H         1.629233    0.264451    1.050883
