9
0 2
C         0.591813   -0.699439   -0.000000
N        -0.610739    0.031374   -0.000000
O        -0.545298    1.252970    0.000000
O        -1.653106   -0.615478    0.000000
H         0.448574   -1.767731    0.000002
C         1.875019    0.004920   -0.000001
H         1.957067    0.659848    0.871998
H         1.957055    0.659869   -0.871985
H         2.698720   -0.704430   -0.000013
