18
0 1
C        -0.615408   -0.003749    0.000002
B         0.970890    0.023206    0.000005
O         1.642184   -1.161571   -0.000000
O         1.724931    1.164027   -0.000004
C        -1.214383    1.403416   -0.000009
H        -0.919506    1.971640   -0.886360
H        -0.919511    1.971651    0.886336
C        -1.094906   -0.756431    1.248134
H        -2.186026   -0.827581    1.252957
H        -0.793252   -0.247964    2.166514
H        -0.688935   -1.767166    1.277819
C        -1.094901   -0.756447   -1.248123
H        -0.793243   -0.247993   -2.166509
H        -2.186020   -0.827598   -1.252949
H        -0.688929   -1.767183   -1.277793
H        -2.305869    1.358445   -0.000012
H         2.597677   -1.046646   -0.000004
H         1.209831    1.973979   -0.000008
