13
0 2
C         0.484622   -1.215733   -0.000007
C         1.873175   -1.220494   -0.000005
C        -0.175419    0.000000   -0.000002
C         0.484622    1.215733    0.000004
C         1.873175    1.220494    0.000006
C         2.489035    0.000000    0.000001
H         2.424616    2.150493    0.000011
H        -0.085610   -2.132330   -0.000011
H         2.424616   -2.150493   -0.000008
N        -1.645813    0.000000    0.000001
O        -2.208287    1.073738    0.000004
O        -2.208287   -1.073738   -0.000001
H        -0.085610    2.132330    0.000008
