15
0 1
C         0.279244    0.439113    0.000002
B        -1.131039   -0.302445    0.000002
O        -2.229098    0.499032    0.000003
C         0.455495    1.281139    1.254383
H         0.388925    0.675542    2.157347
H        -0.330729    2.036107    1.289348
C         0.455490    1.281149   -1.254374
Cl         1.599286   -0.835047   -0.000006
H        -0.330734    2.036117   -1.289330
H         0.388917    0.675558   -2.157342
H         1.423328    1.783338   -1.247874
H         1.423333    1.783328    1.247884
H        -3.054258    0.003322    0.000001
O        -1.288369   -1.646710   -0.000003
H        -0.443084   -2.112273   -0.000005
