20
0 1
B         1.698152   -0.000001   -0.000000
C         2.509841   -1.338924    0.101831
C         0.135730   -0.000001    0.000001
C         2.509834    1.338926   -0.101832
H         3.485960    1.196835   -0.568783
H         2.716961    1.670194    0.924276
H         2.000311    2.162987   -0.599839
H         3.485942   -1.196832    0.568833
H         2.717025   -1.670155   -0.924277
H         2.000306   -2.163008    0.599788
C        -0.594797    1.191120    0.052541
C        -0.594798   -1.191122   -0.052539
C        -1.977743   -1.196953   -0.061454
C        -2.672170    0.000000   -0.000001
C        -1.977742    1.196952    0.061454
H        -2.516681    2.134110    0.110947
H        -0.069123    2.135956    0.093132
H        -2.516683   -2.134110   -0.110948
H        -3.754585    0.000001   -0.000002
H        -0.069125   -2.135959   -0.093130
