20
0 1
C         0.246810   -0.170871   -0.135119
C        -0.258045    1.086467    0.188470
C        -1.623258    1.306541    0.257615
C        -2.509783    0.271308    0.020373
C        -2.022500   -0.990052   -0.283250
C        -0.660078   -1.207941   -0.352182
B         1.821208   -0.772424    1.337541
H        -1.994432    2.293476    0.500265
H        -3.576289    0.444594    0.073360
H        -2.707570   -1.806925   -0.467734
H        -0.283018   -2.195099   -0.588486
H         0.421189    1.905696    0.377177
C         1.744138   -0.447521   -0.183242
C         2.592980    0.704657   -0.701170
H         1.888615   -1.329860   -0.807211
H         2.559135    1.566854   -0.035553
H         2.271406    1.028153   -1.693048
H         3.637282    0.398801   -0.770553
H         2.033718    0.108158    2.114163
H         1.582338   -1.867250    1.740945
