13
0 2
C         0.000003    1.473811    0.100241
H        -0.926694    2.022110    0.201967
H         0.926701    2.022113    0.201943
C         0.000000    0.058160   -0.347796
C         1.260948   -0.675901    0.101526
H         1.303838   -0.733166    1.190839
H         2.159845   -0.162973   -0.242934
C        -1.260950   -0.675896    0.101524
H         1.282057   -1.693335   -0.291270
H         0.000002    0.053665   -1.450141
H        -1.282062   -1.693331   -0.291271
H        -1.303843   -0.733160    1.190837
H        -2.159845   -0.162965   -0.242939
