18
0 1
C        -2.605129    0.323360   -0.376871
C        -1.759556    1.350364    0.007224
C        -0.465272    1.072881    0.411831
C        -2.143577   -0.981792   -0.351696
C        -0.849069   -1.255558    0.054917
C         0.008408   -0.234201    0.447167
H        -3.617581    0.538384   -0.691397
H        -2.109410    2.374430   -0.006286
H         0.190190    1.881828    0.710658
H        -2.795898   -1.793190   -0.647353
H        -0.497995   -2.280069    0.074106
C         1.433549   -0.519776    0.850394
B         2.354557   -0.412454   -0.415054
H         1.758513    0.180708    1.621069
H         1.497477   -1.529139    1.264367
O         3.258796    0.591168   -0.484296
H         3.761544    0.609147   -1.303196
H         2.253884   -1.180854   -1.330127
