20
0 1
C         1.333501   -1.499631    0.000000
C         2.607664   -1.018114    0.000000
C         2.837019    0.372163    0.000000
C         1.791450    1.247505    0.000000
C         0.459812    0.779508   -0.000000
C         0.228494   -0.617903    0.000000
H         1.147243   -2.566261    0.000000
H         3.448204   -1.698881    0.000000
H         3.853177    0.743892    0.000000
H         1.969570    2.315397    0.000000
C        -1.100915   -1.084107   -0.000000
C        -2.181363   -0.227241   -0.000000
C        -0.649976    1.658270   -0.000000
C        -1.919188    1.172574   -0.000000
H        -0.466556    2.725563   -0.000000
H        -2.758791    1.855960   -0.000000
B        -3.605811   -0.782266    0.000000
H        -1.272131   -2.154292    0.000000
H        -3.785600   -1.961241    0.000000
H        -4.545049   -0.046955    0.000000
