10
0 2
C        -0.385763    0.000000   -0.177927
C        -1.066167   -1.300244    0.025154
H        -0.543176   -2.107859   -0.486299
H        -2.088686   -1.252005   -0.351337
C        -1.066167    1.300244    0.025154
Cl         1.329948    0.000000    0.015474
H        -2.088686    1.252005   -0.351337
H        -0.543176    2.107859   -0.486299
H        -1.118411    1.568710    1.088964
H        -1.118411   -1.568710    1.088964
