13
0 1
B         0.818796    1.313838    0.099716
C        -0.004762    0.095293   -0.400371
C         0.798111   -1.111687    0.138902
H         0.841625   -1.107227    1.230376
H         0.021613    0.029080   -1.492024
C        -1.451072    0.033779    0.078821
H        -1.500500    0.070513    1.169047
H        -1.939897   -0.887750   -0.246235
H        -2.037618    0.870472   -0.303313
H         1.820556   -1.132938   -0.240238
H         0.311385   -2.041028   -0.162202
H         1.778876    1.690697   -0.501103
H         0.556316    1.834682    1.143004
