14
0 1
C         0.000001    1.098375   -1.203110
C         0.000001   -0.283275   -1.198831
C         0.000001   -1.007755    0.000000
C         0.000001    1.787659   -0.000000
C         0.000001    1.098375    1.203110
C         0.000001   -0.283275    1.198831
H         0.000001    1.642229   -2.138430
H         0.000001   -0.823689   -2.137146
H         0.000001   -0.823689    2.137146
H         0.000001    2.870193   -0.000000
H         0.000001    1.642229    2.138430
B        -0.000000   -2.537722    0.000000
H        -0.000012   -3.139644   -1.029624
H        -0.000012   -3.139644    1.029624
