8
0 2
C        -0.000000    0.740025    0.000001
N        -1.233444    0.031923   -0.085527
N         1.233444    0.031923    0.085527
H        -0.000000    1.816067    0.000002
O         2.174311    0.608211   -0.426304
O        -2.174311    0.608210    0.426303
O        -1.256268   -1.027157   -0.664356
O         1.256268   -1.027156    0.664356
