9
0 2
B        -0.000000    0.567258   -0.000000
C        -1.392834   -0.097811    0.011337
H        -2.189414    0.505737    0.444354
H        -1.395600   -1.090842    0.474919
H        -1.655250   -0.246171   -1.045411
C         1.392834   -0.097812   -0.011337
H         2.189407    0.505729   -0.444376
H         1.395597   -1.090853   -0.474897
H         1.655262   -0.246146    1.045411
