13
0 1
C        -0.070964    0.054411   -0.416656
N        -1.026387   -1.038675    0.066256
B         1.489575   -0.294098   -0.101447
N        -0.489393    1.291424    0.390128
F        -0.340408    0.296597   -1.687615
O        -1.523456    1.814203    0.084222
O         2.344038    0.252112   -0.979257
O        -0.921589   -1.315144    1.245497
O         1.859348   -1.090618    0.909395
O        -1.760063   -1.536173   -0.731597
O         0.281540    1.623793    1.258126
H         1.141271   -1.358298    1.498008
H         3.272227    0.078321   -0.788082
