13
0 1
O         0.811211   -1.028020    0.000003
C         2.118386   -0.706322   -0.000004
C         0.092575    0.144709   -0.000003
C         2.278036    0.635467    0.000009
C         0.964566    1.183871   -0.000003
H         3.213768    1.167392    0.000017
H         2.812836   -1.528272   -0.000006
H         0.690133    2.225119   -0.000005
B        -1.448273    0.020970   -0.000006
O        -2.197623    1.153317   -0.000002
O        -2.064310   -1.194750    0.000002
H        -1.448173   -1.933143    0.000005
H        -3.142792    0.973331    0.000001
