20
0 1
C         0.146008   -0.191727   -0.294373
N        -0.021852    1.292446   -0.256376
B         1.676797   -0.614112   -0.147904
O         0.484323    1.892725    0.681024
O        -0.657359    1.823207   -1.133554
O         2.003607   -1.816450   -0.681918
O         2.593754    0.126468    0.508260
H        -0.252337   -0.492719   -1.258864
C        -0.680191   -0.807843    0.844257
C        -2.167994   -0.475113    0.811957
H        -0.252299   -0.495772    1.798236
H        -0.541440   -1.888584    0.770418
C        -2.887973   -0.959740   -0.437404
H        -2.306992    0.603298    0.923807
H        -2.624692   -0.927142    1.694847
H        -2.538627   -0.444284   -1.331906
H        -3.959742   -0.779023   -0.359587
H        -2.741397   -2.031667   -0.585151
H         2.212340    0.941908    0.866678
H         2.920460   -2.063647   -0.521442
