21
0 1
C         2.024627    1.234440   -0.190304
B         1.255693   -0.076295    0.193969
H         2.788921    1.385060    0.583537
H         1.403672    2.131383   -0.179927
H         2.559697    1.175412   -1.139580
C         1.727722   -1.446265   -0.404486
H         2.813505   -1.509197   -0.504310
H         1.337600   -1.502505   -1.429485
H         1.365511   -2.328943    0.122392
C         0.000008   -0.000011    1.131505
B        -1.255690    0.076291    0.193989
H         0.054225    0.898020    1.751435
H        -0.054200   -0.898055    1.751418
C        -2.024632   -1.234435   -0.190295
H        -2.559716   -1.175391   -1.139562
H        -2.788916   -1.385066    0.583554
H        -1.403680   -2.131380   -0.179941
C        -1.727725    1.446272   -0.404436
H        -2.813509    1.509208   -0.504243
H        -1.337617    1.502529   -1.429440
H        -1.365505    2.328941    0.122453
