17
0 1
C        -0.379762   -0.003368    0.000002
B         1.026303   -0.706251   -0.000004
O         2.161008    0.030704   -0.000013
C        -1.143777   -0.470617    1.247045
H        -0.649866   -0.149890    2.166657
H        -1.237680   -1.557650    1.278224
C        -1.143793   -0.470617   -1.247030
H        -1.237696   -1.557650   -1.278208
H        -0.649893   -0.149891   -2.166648
H        -2.152617   -0.048973   -1.251358
H        -2.152601   -0.048972    1.251385
C        -0.276324    1.520426    0.000002
H        -1.271326    1.973714    0.000008
H         0.258152    1.883998   -0.878451
H         0.258163    1.883998    0.878448
H         2.966839   -0.492474   -0.000024
H         1.110888   -1.905532   -0.000021
