10
0 2
C        -1.309727   -0.240877    0.000001
C        -0.068092    0.570392   -0.000003
C         1.207605   -0.284393    0.000002
H         1.246468   -0.925864   -0.880921
H         1.246468   -0.925852    0.880934
H         2.097073    0.347563   -0.000002
H        -0.049709    1.222459    0.876962
H        -0.049707    1.222447   -0.876978
H        -1.734646   -0.605761   -0.924960
H        -1.734665   -0.605726    0.924967
