12
0 1
B         0.000000    0.052818   -0.000009
N         0.000000    1.449504   -0.000002
C        -1.370471   -0.726502    0.000008
C         1.370471   -0.726502   -0.000004
H         2.250118   -0.079998   -0.000032
H         1.440292   -1.382670   -0.871787
H         1.440311   -1.382615    0.871821
H        -2.250118   -0.079998    0.000044
H        -1.440282   -1.382666    0.871796
H        -1.440321   -1.382619   -0.871813
H        -0.842243    1.998988    0.000010
H         0.842243    1.998988   -0.000005
