11
0 1
C        -0.066369   -0.490925    0.233387
B         1.332054    0.245854   -0.144206
N        -1.306366    0.321106   -0.221124
O         2.329127   -0.579888   -0.498993
O         1.465614    1.577845   -0.060145
O        -1.304590    1.483302    0.137945
O        -2.148029   -0.225176   -0.869837
F        -0.199254   -1.705086   -0.275586
F        -0.207906   -0.570540    1.574610
H         0.646013    2.032862    0.181558
H         3.163959   -0.132362   -0.675954
