18
0 1
C         0.262094    0.642528   -0.370113
B        -0.966655   -0.276695    0.000163
O        -1.947663   -0.633485   -0.885872
O        -1.101180   -0.716218    1.281514
C         1.574520    0.127896    0.223918
C         1.973644   -1.246017   -0.291897
H         1.479194    0.095626    1.311870
H         2.370726    0.845573    0.003710
H         2.080892   -1.242753   -1.378856
H         1.226261   -1.998525   -0.032692
C        -0.020789    2.076355    0.097725
H         0.374877    0.663232   -1.461921
H         0.801544    2.742579   -0.170781
H        -0.136606    2.111588    1.182184
H        -0.932789    2.480570   -0.345463
H         2.924063   -1.570229    0.132912
H        -1.801385   -0.313794   -1.778655
H        -1.899563   -1.237336    1.413940
