9
0 2
B        -0.000000    0.567258   -0.000000
C        -1.392834   -0.097812    0.011337
H        -1.395599   -1.090847    0.474910
H        -1.655255   -0.246161   -1.045411
H        -2.189411    0.505733    0.444363
C         1.392834   -0.097812   -0.011337
H         1.395598   -1.090849   -0.474906
H         1.655258   -0.246156    1.045411
H         2.189410    0.505732   -0.444367
