19
0 1
C        -0.076535   -0.033379    0.181338
B         0.765986    1.239782   -0.357562
N         0.058570   -1.292579   -0.654697
N        -1.544751    0.339024    0.041710
C         0.269431   -0.396037    1.617694
O        -1.906378    0.552574   -1.093513
O         1.045087   -1.408130   -1.358086
O         1.735291    1.180058   -1.279095
O        -0.785384   -2.134448   -0.512347
O         0.429120    2.386377    0.271071
O        -2.215499    0.431419    1.033645
C         1.719373   -0.825512    1.791480
H        -0.413344   -1.177279    1.949647
H         0.060200    0.490105    2.213776
H         1.950385   -1.729103    1.227525
H         1.911298   -1.035357    2.842062
H         2.415677   -0.046780    1.477200
H         0.910947    3.159339   -0.041293
H         1.846667    0.281824   -1.626672
