18
0 1
C         0.294052   -0.021764    0.259999
B        -1.250977    0.009930   -0.078538
C        -1.981581   -1.349829   -0.298119
H        -1.397927   -2.088306   -0.850313
H        -2.969344   -1.254637   -0.749104
H        -2.124786   -1.773529    0.704432
O         0.551319   -0.148933    1.444200
C         1.380891    0.091737   -0.779183
C        -1.986500    1.384652   -0.092277
H        -1.906499    1.771470   -1.117624
H        -1.531487    2.134603    0.555170
H        -3.052300    1.311441    0.126392
C         2.788369    0.014658   -0.219661
H         1.214816    1.033313   -1.315289
H         1.201867   -0.692116   -1.523751
H         2.961558    0.807797    0.506032
H         3.526554    0.106601   -1.015828
H         2.950500   -0.931545    0.294422
