20
0 1
C         1.049303    1.424832    0.000000
C         2.355980    1.031468    0.000000
C         2.695119   -0.333069    0.000000
C         1.710157   -1.273678    0.000000
C         0.349620   -0.894584    0.000000
C         0.000000    0.479212    0.000000
H         0.805562    2.476239    0.000000
H         3.140900    1.776300    0.000000
H         3.735305   -0.630012    0.000000
H         1.955242   -2.328458    0.000000
C        -1.387386    0.855337    0.000000
C        -2.333695   -0.151612    0.000000
C        -0.673799   -1.868601    0.000000
C        -1.988512   -1.511018    0.000000
H        -0.390186   -2.914233    0.000000
H        -2.762532   -2.266569    0.000000
H        -3.380524    0.123300    0.000000
B        -1.900112    2.297268    0.000000
H        -1.185404    3.248807    0.000000
H        -3.078524    2.478564    0.000000
