12
0 2
C         1.358400   -0.722743    0.006743
B         0.000000    0.063488    0.000001
H         1.300679   -1.668761    0.549084
H         2.209749   -0.151106    0.378501
H         1.589676   -0.991220   -1.032311
C        -1.358399   -0.722745   -0.006743
H        -1.300675   -1.668764   -0.549081
H        -2.209747   -0.151110   -0.378507
H        -1.589679   -0.991219    1.032311
C        -0.000001    1.599347   -0.000001
H         0.909577    2.190795    0.039035
H        -0.909581    2.190793   -0.039032
