22
0 1
C        -1.162827    2.131934    0.024242
C         0.119385    2.585542    0.025941
C        -1.437191    0.747304    0.007293
C        -0.363090   -0.182084   -0.004049
C         0.983760    0.307259    0.000611
C         1.182502    1.668320    0.012179
H         0.326650    3.647379    0.037672
B         2.277740   -0.573167    0.001769
O         2.223508   -1.936095    0.122196
O         3.473558    0.086686   -0.111953
H        -1.995104    2.825175    0.034615
C        -2.771126    0.281418   -0.000323
C        -3.047456   -1.051208   -0.020570
C        -1.990672   -1.978397   -0.034606
C        -0.692332   -1.559766   -0.026580
H        -2.210583   -3.037966   -0.051978
H         0.103785   -2.285502   -0.035221
H        -3.572075    1.010339    0.009232
H        -4.072150   -1.398451   -0.026682
H         2.195554    2.045973    0.011951
H         4.264122   -0.456361   -0.088604
H         3.068853   -2.391404    0.113394
