18
0 1
C         0.381670   -0.721690   -0.000004
B         1.778845    0.000320   -0.000005
O         2.910562   -0.756587    0.000004
O         1.935809    1.359846    0.000003
C        -0.845903    0.182960   -0.000001
H         0.349778   -1.391336   -0.865994
C        -2.165932   -0.574105   -0.000001
H        -0.823309    0.840896   -0.876792
H        -0.823308    0.840894    0.876790
C        -3.380064    0.340633    0.000001
H        -2.197982   -1.231088    0.873719
H        -2.197984   -1.231087   -0.873723
H        -3.386131    0.985821    0.880819
H        -4.310137   -0.228290    0.000001
H        -3.386133    0.985823   -0.880816
H         0.349779   -1.391338    0.865985
H         3.712019   -0.223506    0.000008
H         1.109597    1.848747    0.000004
