10
0 2
C         0.000005    0.000001    0.000004
N         0.622757    1.298298    0.000015
N        -1.435731   -0.109824    0.000007
O        -2.022643    0.671621   -0.706329
O         0.107124    2.128560    0.706290
O         1.593020    1.415841   -0.706249
O        -1.896953   -0.971446    0.706346
N         0.812977   -1.188473   -0.000020
O         0.429623   -2.087488   -0.706312
O         1.789824   -1.157090    0.706249
