22
0 1
C        -1.842407   -1.309818   -0.003379
C        -0.357865   -1.219062   -0.334336
C        -2.567029   -0.007118   -0.319756
H        -1.956898   -1.535563    1.061979
H        -2.299590   -2.138129   -0.548863
C        -1.914381    1.175791    0.385078
H        -3.619609   -0.079269   -0.038747
H        -2.544086    0.162761   -1.401529
C        -0.428183    1.268193    0.057672
H        -2.032289    1.059462    1.467250
H        -2.419810    2.105059    0.113775
C         0.316264   -0.032192    0.371224
H         0.013902    2.104347    0.608204
H        -0.320669    1.499322   -1.009843
H        -0.241423   -1.106201   -1.418519
H         0.151625   -2.144464   -0.064868
B         1.862415    0.013525    0.066445
H         0.226328   -0.214553    1.451327
O         2.514027    1.105813   -0.437846
O         2.612162   -1.096047    0.314821
H         3.541181   -0.971722    0.096072
H         1.941358    1.858438   -0.603269
