8
0 1
C         1.267948   -0.165460    0.000002
B        -0.135438    0.524357    0.000002
H         1.844388    0.159387   -0.870623
H         1.239011   -1.257619   -0.000006
H         1.844381    0.159374    0.870636
O        -1.302083   -0.160936   -0.000003
H        -0.248239    1.714640    0.000009
H        -1.193370   -1.117315   -0.000008
