20
0 1
C        -1.160658   -0.000000   -0.390137
C        -0.317096    1.258883   -0.606888
C         0.887210    1.261550    0.328964
C         1.726881    0.000000    0.160192
C         0.887210   -1.261550    0.328964
C        -0.317096   -1.258884   -0.606888
B        -2.070186   -0.000000    0.862351
H        -0.921834    2.152940   -0.446137
H         0.038198    1.295564   -1.642147
H         0.533197    1.324451    1.364415
H         1.500174    2.148398    0.156567
H         2.557049    0.000000    0.869388
H         2.171698    0.000000   -0.840497
H         0.533198   -1.324451    1.364415
H         1.500175   -2.148398    0.156567
H         0.038198   -1.295564   -1.642147
H        -0.921834   -2.152941   -0.446137
H        -1.979587   -0.000000   -1.141911
H        -2.468203    1.026812    1.325313
H        -2.468202   -1.026812    1.325315
