20
0 1
B         1.698152   -0.000011   -0.000004
C         0.135731   -0.000012   -0.000002
C        -0.594791    1.191112    0.052557
C        -0.594802   -1.191129   -0.052559
C        -1.977748   -1.196953   -0.061472
C        -2.672169    0.000001    0.000002
C        -1.977736    1.196950    0.061474
H        -3.754584    0.000006    0.000004
H        -2.516672    2.134109    0.110983
H        -0.069113    2.135946    0.093160
H        -0.069133   -2.135967   -0.093165
H        -2.516692   -2.134108   -0.110979
C         2.509861   -1.338916    0.101861
H         2.717252   -1.670046   -0.924238
H         3.485876   -1.196812    0.569042
H         2.000284   -2.163065    0.599665
C         2.509812    1.338931   -0.101862
H         2.000322    2.162904   -0.600051
H         3.486019    1.196836   -0.568636
H         2.716739    1.670345    0.924240
