21
0 1
C         0.962725   -1.366625   -0.134201
C        -0.418382   -1.396318   -0.124501
C         1.572147   -0.137506   -0.019056
C         0.851715    1.033508    0.094485
C        -0.534642    1.001153    0.089534
C        -1.187532   -0.238115   -0.016248
H        -0.908560   -2.357146   -0.227762
B        -2.751871   -0.394374   -0.031942
O        -3.377311   -1.476282    0.518300
O        -3.529243    0.544319   -0.628238
H         1.557864   -2.261410   -0.226952
H         1.384105    1.968364    0.184915
C        -1.289038    2.295330    0.202849
H        -0.608035    3.119061    0.407812
H        -2.030822    2.257335    0.999868
H        -1.830243    2.511877   -0.717022
N         3.042616   -0.069801   -0.015900
O         3.556889    1.022588    0.090128
O         3.652536   -1.112431   -0.119191
H        -4.467249    0.330109   -0.584817
H        -2.800951   -2.081825    0.989803
