8
0 2
C        -0.034025    0.440482   -0.236526
N        -1.248986   -0.290972    0.059735
N         1.272625   -0.170564   -0.059699
F        -0.094432    1.715783   -0.115407
O         1.439740   -1.228149   -0.613786
O        -1.127028   -1.417379    0.476194
O        -2.271178    0.321632   -0.141298
O         2.069538    0.467123    0.586086
