16
0 2
Cl         3.360080   -0.312643    0.002469
B         2.034305    0.799054    0.002653
C         0.550414    0.446583    0.000030
C        -0.409307    1.461385   -0.001028
H        -0.083085    2.493358   -0.000661
C        -1.759869    1.168829   -0.004679
H        -2.485238    1.972673   -0.007814
C        -2.200733   -0.148085   -0.006107
C        -3.663378   -0.475233    0.008696
C         0.095796   -0.878975   -0.003600
H         0.816710   -1.686300   -0.005334
C        -1.250844   -1.167821   -0.007209
H        -1.580314   -2.199830   -0.012420
H        -4.270698    0.406149   -0.189561
H        -3.958647   -0.873603    0.981452
H        -3.904084   -1.232886   -0.737515
