16
0 1
Cl        -0.864255    1.664553    0.120939
Cl        -2.502589   -0.777630   -0.444305
B        -1.020425   -0.080194    0.179797
C         0.068812   -0.986367    0.820524
C         1.503924   -0.465913    0.834735
H        -0.280344   -1.138121    1.852125
C         2.128821   -0.412215   -0.552200
H         2.114521   -1.107575    1.475118
H         1.531444    0.530066    1.282725
C         3.556071    0.109900   -0.535903
H         1.518110    0.220858   -1.202101
H         2.107007   -1.413259   -0.993037
H         3.596566    1.123803   -0.133823
H         3.985017    0.132274   -1.537913
H         4.196807   -0.517867    0.086329
H         0.023592   -1.979323    0.365883
