12
0 1
Cl         1.227512   -1.505003    0.000003
Cl         1.227511    1.505004   -0.000008
N        -1.091528   -0.000000    0.000001
B         0.292277   -0.000000   -0.000001
C        -1.902173   -1.205011    0.000009
H        -2.543872   -1.226113    0.884196
H        -1.277244   -2.090485    0.000006
H        -2.543886   -1.226116   -0.884168
C        -1.902173    1.205010    0.000000
H        -1.277244    2.090485   -0.000013
H        -2.543870    1.226121    0.884188
H        -2.543888    1.226107   -0.884176
