11
0 2
B         1.635385    0.232427   -0.596949
Cl         3.045695   -0.489637   -0.005198
C         0.289980    0.576189    0.091621
O         0.097007    1.602142    0.671200
O        -0.653006   -0.419987   -0.044884
C        -2.007739   -0.117797   -0.153483
O        -2.397441    0.905578   -0.604012
C        -2.827661   -1.270665    0.321086
H        -2.679506   -1.396070    1.394008
H        -2.498692   -2.188098   -0.164906
H        -3.875495   -1.082367    0.110248
