9
0 2
Cl         1.514479   -0.210357   -0.000004
B         0.250338    0.966680   -0.000007
C        -1.273939    0.700542    0.000008
C        -1.736988   -0.757118    0.000001
H        -1.685186    1.240247    0.861201
H        -1.368350   -1.287369    0.877897
H        -1.368375   -1.287352   -0.877916
H        -1.685213    1.240265   -0.861160
H        -2.825139   -0.823659    0.000016
