9
0 2
Cl         3.034562    0.070836    0.003060
B         1.404593   -0.515046   -0.037211
P        -1.215939   -0.043914   -0.111454
O        -1.629319   -0.865958   -1.228122
O        -1.478839   -0.652165    1.327872
H        -1.973327   -1.479228    1.290772
O        -1.849607    1.392321   -0.088481
H        -1.534322    1.983685    0.604243
O         0.349793    0.316460   -0.022414
