12
0 2
Cl         2.872299    0.151595    0.000000
B         1.464397   -0.845775    0.000000
C         0.014369   -0.361905    0.000000
C        -0.340029    0.990242    0.000000
C        -1.032109   -1.288207   -0.000000
N        -2.316662   -0.964331   -0.000001
C        -1.672363    1.340960   -0.000000
C        -2.619757    0.327878   -0.000001
H         0.430595    1.750508    0.000000
H        -1.983446    2.376379   -0.000000
H        -0.805177   -2.348602   -0.000000
H        -3.677065    0.569979   -0.000001
