16
0 1
Cl        -3.153491    1.495030   -0.000017
Cl        -3.153491   -1.495030   -0.000012
B        -2.247126   -0.000000    0.000015
C        -0.697132   -0.000000    0.000015
C         0.019090   -1.199504    0.000017
C         1.399555   -1.209697    0.000016
C         2.063507   -0.000000    0.000012
C         0.019089    1.199504    0.000012
H        -0.514062    2.139432    0.000011
C         1.399555    1.209697    0.000011
H         1.962881    2.129838    0.000008
N         3.538533   -0.000000    0.000010
O         4.097812   -1.074276   -0.000012
O         4.097811    1.074276   -0.000014
H        -0.514062   -2.139432    0.000019
H         1.962881   -2.129838    0.000017
