14
0 1
Cl        -2.069578    1.494441    0.000001
Cl        -2.069579   -1.494441    0.000017
B        -1.150540   -0.000000   -0.000015
C         0.389264    0.000000   -0.000010
C         1.109621    1.198332   -0.000015
H         0.575283    2.138343   -0.000023
C         2.490983    1.200287   -0.000011
H         3.030714    2.137750   -0.000015
C         3.183039   -0.000000   -0.000001
C         1.109621   -1.198332   -0.000000
H         0.575283   -2.138343    0.000004
C         2.490983   -1.200287    0.000004
H         3.030714   -2.137750    0.000012
H         4.265307   -0.000000    0.000002
