10
0 1
Cl         1.767748   -1.335981    0.000005
Cl         1.388395    1.670834   -0.000011
B         0.770206    0.057907   -0.000001
S        -1.092692   -0.259790    0.000003
O        -1.396889   -0.907675    1.249654
C        -1.903970    1.314636   -0.000009
O        -1.396893   -0.907695   -1.249636
H        -1.640625    1.865694    0.898661
H        -2.967078    1.078387   -0.000008
H        -1.640624    1.865681   -0.898687
