18
0 1
Cl         3.029955   -1.352979    0.000003
Cl         2.782041    1.628538   -0.000013
B         1.984920    0.060723   -0.000003
C         0.461138   -0.067145   -0.000002
C        -0.170544   -1.321030    0.000006
C        -1.537261   -1.438974    0.000010
C        -2.334541   -0.294685    0.000005
C        -0.362271    1.059811   -0.000007
H         0.088090    2.043047   -0.000013
C        -1.740160    0.962803   -0.000004
H        -2.337843    1.861161   -0.000008
H         0.434010   -2.217603    0.000010
O        -3.663709   -0.503209    0.000008
C        -4.529100    0.614054    0.000008
H        -4.383173    1.227457    0.891749
H        -5.538016    0.212211    0.000015
H        -4.383183    1.227450   -0.891740
H        -2.022304   -2.405166    0.000016
