16
0 1
Cl         3.867715    1.494699    0.000000
Cl         3.867715   -1.494699   -0.000002
B         2.956858   -0.000000   -0.000001
C         1.409512    0.000000    0.000001
C         0.689716   -1.197062    0.000001
H         1.221380   -2.138375    0.000000
C         0.689716    1.197062    0.000000
H         1.221380    2.138375    0.000000
Cl        -3.867715   -1.494699    0.000002
Cl        -3.867715    1.494699   -0.000000
B        -2.956859    0.000000   -0.000002
C        -1.409512   -0.000000   -0.000000
C        -0.689716    1.197062   -0.000000
H        -1.221380    2.138375   -0.000001
C        -0.689716   -1.197062    0.000000
H        -1.221380   -2.138375   -0.000000
