15
0 2
Cl         2.261527   -0.522217    0.036934
B         0.627383   -0.340872   -0.492698
C        -0.481566    0.470094    0.236073
C        -1.903497    0.111436   -0.196447
C        -0.190747    1.966886    0.023107
H        -0.245367    2.232834   -1.033826
H         0.795796    2.246792    0.391246
H        -0.932311    2.566428    0.552651
H        -0.381293    0.262897    1.310462
C        -2.274506   -1.330948    0.106970
H        -2.008214    0.301660   -1.267823
H        -2.604686    0.784019    0.306072
H        -1.611047   -2.024270   -0.414463
H        -3.295553   -1.553835   -0.203044
H        -2.198311   -1.539275    1.176115
