20
0 1
Cl         2.085470   -1.732008    0.798068
Cl         3.223409    0.570149   -0.706600
C         0.445319    0.534854    0.004973
B         1.809980   -0.189277    0.008962
C        -0.835605   -0.104800   -0.078080
C        -1.000603   -1.479956   -0.361894
H        -0.131579   -2.098618   -0.518579
C        -2.240337   -2.041799   -0.451992
H        -2.334832   -3.096762   -0.672514
C        -3.396345   -1.264371   -0.266817
H        -4.373047   -1.723782   -0.337525
C        -3.277692    0.067582   -0.011128
H        -4.157996    0.684525    0.118412
C        -2.007608    0.678528    0.079797
C        -1.893380    2.067034    0.310625
H        -2.799251    2.646551    0.438709
C        -0.674377    2.668689    0.356237
H        -0.591685    3.734306    0.521088
C         0.487563    1.899728    0.188721
H         1.445937    2.398825    0.227988
