7
0 1
Cl         2.118762   -0.806645   -0.700853
Cl         0.992680    1.477112    0.908038
B         0.757111    0.092388   -0.099860
C        -0.690027   -0.420395   -0.476295
Cl        -1.229200   -1.362532    0.945767
Cl        -1.821008    0.878508   -0.878268
H        -0.686360   -1.109102   -1.312547
