9
0 2
Cl         2.364532   -0.226070    0.184331
B         0.950515    0.060944   -0.709620
C        -0.495081    0.336710   -0.198984
O        -0.836933    1.450921    0.112395
O        -1.301503   -0.727793   -0.193909
C        -2.652710   -0.489767    0.218256
H        -3.152592   -1.450468    0.151814
H        -3.125557    0.236334   -0.440151
H        -2.677238   -0.114066    1.239292
