9
0 2
Cl        -2.212908   -0.207355   -0.099587
B        -0.794506    0.564862    0.440279
C         0.640797    0.580843   -0.069211
N         1.459947   -0.315654    0.305694
H         0.967944    1.423878   -0.700216
C         2.828112   -0.223347   -0.135620
H         3.482563   -0.163671    0.735944
H         3.014303    0.641835   -0.784945
H         3.094067   -1.136700   -0.670065
