18
0 1
Cl         1.872846   -1.973680   -0.000002
Cl         3.166779    0.719701   -0.000004
B         1.690664   -0.226557   -0.000001
C         0.301195    0.437843    0.000000
C        -0.858285   -0.349050    0.000001
C        -2.109042    0.241281    0.000002
C        -2.216607    1.629747    0.000001
C         0.173756    1.824658   -0.000000
H         1.057769    2.445687   -0.000001
C        -1.081649    2.411173    0.000000
H        -1.175653    3.488856   -0.000000
H        -3.204805    2.069536    0.000002
H        -0.759547   -1.423034    0.000001
O        -3.277871   -0.442018    0.000002
C        -3.228536   -1.852109    0.000005
H        -2.722981   -2.232649    0.890977
H        -2.722984   -2.232653   -0.890967
H        -4.260752   -2.190432    0.000008
