15
0 2
Cl        -3.340205   -0.998427   -0.000024
B        -2.571931    0.540345    0.000020
C        -1.059413    0.804047    0.000010
C        -0.133552   -0.241831    0.000005
C         1.211467    0.049030    0.000000
C         1.687319    1.347716   -0.000000
C        -0.579726    2.116695    0.000009
H        -1.290730    2.932279    0.000013
C         0.777512    2.387862    0.000005
H         1.130120    3.409688    0.000006
H         2.752584    1.521936   -0.000003
N         2.181339   -1.059404    0.000003
O         1.742920   -2.188185    0.000010
O         3.358815   -0.772381    0.000000
H        -0.453731   -1.273144    0.000009
