8
0 2
Cl         1.494840   -0.216772    0.000003
N        -1.150923    0.648268   -0.000006
B         0.187949    0.950425   -0.000002
C        -1.780156   -0.665643   -0.000000
H        -1.801042    1.418057   -0.000008
H        -1.010020   -1.431750   -0.000027
H        -2.401807   -0.798655   -0.886294
H        -2.401762   -0.798673    0.886323
