12
0 2
Cl         1.984677   -0.088109    0.035080
B         0.403961   -0.784982    0.037878
C        -0.924612   -0.067847   -0.325613
C        -2.175296   -0.814410    0.140727
H        -2.162949   -1.856055   -0.177964
H        -3.077652   -0.345578   -0.255779
H        -2.248858   -0.803222    1.229446
C        -0.968513    1.412102    0.070927
H        -0.898287   -0.117659   -1.427616
H        -0.965793    1.522792    1.156641
H        -1.879769    1.880323   -0.304614
H        -0.115464    1.963079   -0.322109
