10
0 1
Cl        -1.377141    1.505503   -0.008528
B        -0.510127   -0.000000   -0.024533
Cl        -1.377139   -1.505504   -0.008527
C         1.096874    0.000001   -0.025449
O         1.657363   -1.088461   -0.681067
H         1.256137   -1.892379   -0.333663
O         1.421824   -0.000005    1.340420
H         2.387494   -0.000001    1.406252
O         1.657363    1.088467   -0.681058
H         1.256131    1.892383   -0.333654
