17
0 2
Cl         3.120651   -0.780190    0.000006
B         2.227606    0.701499    0.000004
C         0.705419    0.846088    0.000001
C        -0.133712   -0.278619    0.000000
C        -1.507372   -0.123731   -0.000003
C        -2.057272    1.157639   -0.000004
C         0.138495    2.117960   -0.000001
H         0.781898    2.986973   -0.000001
C        -1.240304    2.266868   -0.000004
H        -1.681245    3.254684   -0.000005
H        -3.134890    1.252162   -0.000006
H         0.312320   -1.261710    0.000002
O        -2.395955   -1.145394   -0.000003
C        -1.896084   -2.464763   -0.000002
H        -1.294979   -2.662365    0.890992
H        -1.294975   -2.662365   -0.890994
H        -2.764609   -3.117137   -0.000004
