17
0 2
Cl         3.194784   -0.526290   -0.000022
B         1.504194   -0.910529   -0.000014
C         0.367169    0.108135   -0.000003
C        -0.978085   -0.309177    0.000007
C        -2.006595    0.626512    0.000015
H        -3.039448    0.315267    0.000022
C        -1.703101    1.976654    0.000015
C         0.625282    1.482128   -0.000002
H         1.656130    1.811146   -0.000009
C        -0.390229    2.416552    0.000006
H        -0.165444    3.473866    0.000006
H        -2.512828    2.695125    0.000021
O        -1.195155   -1.636915    0.000006
C        -2.521087   -2.118957    0.000014
H        -2.444597   -3.202354    0.000012
H        -3.062508   -1.794620   -0.891780
H        -3.062497   -1.794623    0.891815
