8
0 2
Cl         2.437044   -0.000006    0.044999
B         0.920414   -0.562442    0.546233
P        -0.812009   -0.088404   -0.078321
O        -1.234037   -1.009351   -1.135271
O        -1.803657   -0.057122    1.175974
H        -2.259884   -0.898323    1.297892
O        -0.716902    1.460441   -0.413511
H        -1.555024    1.884948   -0.636750
