10
0 1
B        -0.481790   -0.000000    0.134466
Cl        -1.346353   -1.525056   -0.094749
Cl        -1.346351    1.525057   -0.094749
N         0.819710   -0.000001    0.516896
C         2.058635   -0.000001    0.585112
C         2.979563   -0.000000   -0.589061
H         2.424850    0.000004   -1.523882
H         3.628489   -0.877253   -0.546278
H         3.628494    0.877248   -0.546273
H         2.535930   -0.000002    1.570995
