19
0 1
B         1.002926   -0.000000   -0.099387
Cl         2.753604   -0.000000    0.137071
O         0.377970    1.193722   -0.181098
O         0.377970   -1.193722   -0.181098
C        -1.687076    0.000000    0.197465
C        -1.042379   -1.251465   -0.366553
C        -1.042379    1.251465   -0.366553
C        -1.540316    2.523533    0.274667
H        -1.358004    2.502043    1.349509
H        -2.610607    2.643791    0.103765
H        -1.021790    3.384680   -0.143700
H        -1.220644    1.293929   -1.445919
H        -1.582854    0.000000    1.286837
H        -2.753660    0.000000   -0.032011
C        -1.540316   -2.523533    0.274667
H        -1.220644   -1.293929   -1.445919
H        -1.358005   -2.502043    1.349509
H        -1.021791   -3.384679   -0.143700
H        -2.610608   -2.643790    0.103765
