15
0 1
Cl         2.404428    0.000000    0.063570
N        -0.076543    1.216435   -0.071803
N        -0.076543   -1.216435   -0.071802
C        -1.523922    1.261766   -0.182720
C        -2.131207   -0.000000    0.413840
C        -1.523922   -1.261766   -0.182721
B         0.619330   -0.000000   -0.035287
H         0.411429    2.093226   -0.085632
H         0.411429   -2.093226   -0.085631
H        -1.906658   -2.134923    0.348579
H        -1.834537   -1.360929   -1.229427
H        -3.209797   -0.000000    0.251530
H        -1.956691   -0.000000    1.492023
H        -1.834537    1.360930   -1.229426
H        -1.906658    2.134923    0.348581
