7
0 2
Cl         1.679029    0.026112   -0.000006
B         0.039404   -0.511612   -0.000001
C        -1.200176    0.377876    0.000003
C        -2.425501   -0.144677    0.000011
H        -1.094780    1.461227   -0.000004
H        -2.574267   -1.217575    0.000014
H        -3.317407    0.471316    0.000011
