14
0 2
Cl         3.171405    0.253473    0.000011
B         1.668267   -0.624784   -0.000031
O         0.502545    0.042291    0.000007
C        -0.729827   -0.600646   -0.000003
O        -0.826783   -1.795722   -0.000004
N        -1.738339    0.288632   -0.000007
C        -1.586399    1.728538    0.000003
H        -2.065482    2.153313    0.884925
H        -2.065524    2.153326   -0.884889
H        -0.539467    2.002673   -0.000020
C        -3.097830   -0.208895   -0.000003
H        -3.628305    0.145838   -0.886144
H        -3.628291    0.145811    0.886158
H        -3.081539   -1.293032   -0.000019
