18
0 2
B         0.000000    1.752216   -0.218403
O         1.194827    1.160049   -0.042473
O        -1.194827    1.160049   -0.042473
C        -0.000000   -0.945069   -0.080348
C        -1.255224   -0.221120    0.370033
C         1.255224   -0.221120    0.370033
C         2.523481   -0.815928   -0.189400
H         2.497222   -0.806635   -1.279451
H         2.644241   -1.846024    0.148389
H         3.387084   -0.239009    0.137589
H         1.301880   -0.221244    1.463331
H        -0.000000   -1.019676   -1.172022
H        -0.000000   -1.961368    0.318380
C        -2.523481   -0.815928   -0.189400
H        -1.301880   -0.221243    1.463331
H        -2.497222   -0.806636   -1.279450
H        -3.387084   -0.239009    0.137589
H        -2.644241   -1.846024    0.148389
