13
0 1
Cl        -2.059001   -1.495975    0.000003
B        -1.154693   -0.000000   -0.000000
Cl        -2.059001    1.495975   -0.000003
C         0.395350    0.000000    0.000002
C         1.126070    1.186178   -0.000001
C         1.126070   -1.186178    0.000003
C         2.508249   -1.135175    0.000001
C         2.508249    1.135175   -0.000003
N         3.195230    0.000000   -0.000003
H         0.623997    2.143321   -0.000003
H         3.090475    2.049584   -0.000007
H         0.623997   -2.143321    0.000005
H         3.090475   -2.049584    0.000001
