13
0 1
Cl        -0.931808    1.638898    0.000000
Cl        -2.019812   -1.152958    0.000003
B        -0.628035   -0.084460   -0.000002
C         0.805507   -0.684316   -0.000003
C         1.987792    0.278036   -0.000004
H         0.866263   -1.360132    0.862363
C         3.326753   -0.442203   -0.000000
H         1.922978    0.933882    0.870747
H         1.922980    0.933877   -0.870758
H         3.430468   -1.079291    0.880511
H         4.157973    0.263314   -0.000001
H         0.866262   -1.360135   -0.862366
H         3.430470   -1.079296   -0.880507
