7
0 1
Cl        -1.148878   -1.511119   -0.019767
Cl        -1.148868    1.511124   -0.019766
B        -0.306776   -0.000000    0.000971
C         1.275952   -0.000006    0.111401
O         1.837473   -0.000004    1.172837
O         1.920607   -0.000002   -1.062846
H         2.875201   -0.000003   -0.881137
