7
0 1
Cl         0.539512    1.725056    0.204175
Cl         1.694533   -1.042705   -0.152760
B         0.341052    0.038708   -0.095301
C        -1.116280   -0.585805   -0.297248
F        -2.038424    0.350749   -0.640466
F        -1.497273   -1.116353    0.909725
H        -1.165077   -1.388247   -1.037402
