15
0 2
Cl         2.051065   -0.819873    0.081053
B         1.568527    0.746720   -0.470376
C         0.310279    1.535555   -0.037518
C        -0.866145    0.742720    0.538693
H         0.702757    2.234598    0.716421
C        -1.584136   -0.098456   -0.506712
H        -1.581184    1.434987    0.991601
H        -0.511661    0.094388    1.343777
C        -2.748962   -0.886424    0.070007
H        -0.872612   -0.787445   -0.969966
H        -1.941672    0.555447   -1.307600
H        -2.409403   -1.573291    0.847361
H        -3.251800   -1.475415   -0.697347
H        -3.489935   -0.221379    0.517776
H        -0.021437    2.181981   -0.854868
