12
0 2
Cl        -2.370270   -0.261299    0.160630
B        -0.942754    0.200927   -0.656234
C         0.512000    0.309584   -0.185848
N         1.101976   -0.820119   -0.176707
C         2.503473   -0.935762    0.145188
H         3.009470   -1.444802   -0.677096
H         2.608058   -1.577454    1.022051
H         3.015958    0.009630    0.340309
C         1.122130    1.655907    0.122779
H         0.369004    2.441320    0.072777
H         1.911811    1.906244   -0.586985
H         1.554612    1.664974    1.123640
