13
0 1
F        -1.618804   -1.436542    0.000002
F        -2.155367    0.743788   -0.000002
B        -1.215138   -0.188687    0.000000
C         0.302544    0.213612    0.000001
N         1.113085   -0.764692   -0.000001
C         2.538853   -0.557172   -0.000000
H         2.955291   -1.061489    0.873705
H         2.867402    0.484321   -0.000002
H         2.955293   -1.061494   -0.873703
C         0.680967    1.677302    0.000001
H        -0.207912    2.303356    0.000001
H         1.273692    1.931961   -0.879814
H         1.273695    1.931962    0.879813
