15
0 2
F         3.880533   -0.725264   -0.000037
B         2.655412   -1.188380    0.000021
C         1.424683   -0.251479    0.000012
C         0.135495   -0.775511    0.000012
C        -0.940007    0.086553    0.000004
C        -0.784379    1.459283    0.000002
C         1.588590    1.136888    0.000009
H         2.588615    1.551203    0.000009
C         0.495701    1.984292    0.000007
H         0.635513    3.056343    0.000005
H        -1.658933    2.091970   -0.000002
N        -2.302429   -0.471385   -0.000002
O        -2.414227   -1.677242   -0.000001
O        -3.227873    0.311149   -0.000006
H        -0.033748   -1.841955    0.000016
