10
0 1
F        -1.850934    1.190238    0.085930
F        -2.720170   -0.898759   -0.033290
B        -1.670951   -0.111203    0.006473
P         1.001384    0.002658    0.091534
O         1.293030    0.612992    1.377985
O         1.939765   -1.191352   -0.329055
H         2.424607   -1.561093    0.417473
O         1.026648    0.953872   -1.166588
H         1.460284    1.796103   -0.988219
O        -0.435813   -0.668284   -0.045889
