7
0 1
F        -1.996243    1.127791   -0.242997
F        -1.996319   -1.127624   -0.242966
B        -1.337058    0.000062   -0.192197
C         0.245315   -0.000002   -0.020029
Cl         0.977749   -1.447621   -0.717909
Cl         0.464749   -0.000133    1.756486
Cl         0.977881    1.447648   -0.717704
