11
0 1
F         1.497696   -1.425192   -0.000002
F         2.246820    0.700199   -0.000005
B         1.239820   -0.128590   -0.000002
C        -0.268141    0.396900    0.000002
O        -0.518286    1.588407    0.000003
N        -1.212395   -0.573935    0.000001
C        -2.630133   -0.291757    0.000003
H        -0.903258   -1.531055    0.000001
H        -2.752828    0.787636   -0.000003
H        -3.110484   -0.704627    0.887648
H        -3.110487   -0.704638   -0.887636
