9
0 2
F        -2.386110    0.226275   -0.000020
B        -1.267613    0.859458   -0.000024
S         0.356299   -0.156514    0.000009
O         0.402223   -0.865223   -1.253044
C         1.655180    1.040830   -0.000057
O         0.402232   -0.865097    1.253133
H         1.580515    1.647587   -0.899075
H         2.584511    0.472765   -0.000029
H         1.580518    1.647682    0.898897
