7
0 2
F        -2.453979    0.158863    0.000008
B        -1.324207   -0.502216   -0.000004
C         0.034851    0.231314   -0.000018
N         1.087596   -0.484414   -0.000000
H         0.126061    1.320640    0.000020
O         2.227399    0.268213    0.000003
H         2.939314   -0.382009    0.000008
