9
0 1
F         1.689475   -0.723326   -0.000007
F         0.679901    1.314852   -0.000008
N        -0.677189   -0.634967    0.000004
B         0.562757   -0.012021   -0.000004
C        -1.964802    0.029436    0.000013
H        -0.702800   -1.640793    0.000010
H        -1.811121    1.105829   -0.000012
H        -2.547543   -0.230236    0.885498
H        -2.547574   -0.230274   -0.885440
