8
0 1
F        -1.590315   -0.998683    0.000028
F        -1.287103    1.235642   -0.000029
B        -0.775048    0.018436    0.000002
C         0.811130   -0.191316    0.000004
O         1.298746   -1.302875   -0.000024
N         1.549103    0.945412    0.000019
H         1.117677    1.852297    0.000029
H         2.553852    0.875898    0.000011
