11
0 1
F         2.708491   -0.831705    0.204399
B         1.658193   -0.089584   -0.061246
F         1.830189    1.122687   -0.532785
O         0.430000   -0.653199    0.111786
C        -0.725081    0.050257    0.188903
O        -0.821986    1.154095    0.626445
O        -1.702077   -0.712987   -0.260472
C        -3.008023   -0.129787   -0.192140
H        -3.046575    0.777209   -0.791653
H        -3.259481    0.107434    0.839439
H        -3.681899   -0.881648   -0.588733
