9
0 2
F        -1.976750   -0.017008   -0.000000
B        -0.750702   -0.480322   -0.000002
C         0.493273    0.456764   -0.000001
C         1.863489   -0.209985    0.000002
H         0.376683    1.115463   -0.870501
H         1.992689   -0.842876   -0.877914
H         1.992687   -0.842872    0.877921
H         0.376680    1.115467    0.870496
H         2.664946    0.528834    0.000001
