13
0 1
F        -1.520210    1.119507    0.057097
F        -1.520217   -1.119501    0.057083
B        -0.824486    0.000001   -0.061956
C         0.707579   -0.000003   -0.366273
C         1.409924    1.268293    0.120423
H         0.924697    2.168839   -0.254147
H         2.450567    1.283214   -0.206519
H         1.408671    1.322009    1.210890
C         1.409918   -1.268297    0.120435
H         0.753900   -0.000009   -1.465849
H         1.408666   -1.322002    1.210903
H         2.450561   -1.283226   -0.206507
H         0.924687   -2.168844   -0.254126
