10
0 1
F         1.456209    1.243577    0.000027
F         2.074269   -0.920488   -0.000009
B         1.106965   -0.020763   -0.000002
C        -0.384502   -0.483585   -0.000022
N        -1.311529    0.375313   -0.000000
H        -0.612220   -1.559639   -0.000021
C        -2.678075   -0.077950    0.000000
H        -3.182265    0.333882   -0.875390
H        -3.182252    0.333844    0.875416
H        -2.776216   -1.170052   -0.000023
