13
0 2
F        -2.583559    0.390802    0.347640
B        -1.610320    0.231453   -0.501000
C        -0.243418   -0.474232   -0.155740
O        -0.367716   -1.692248   -0.098783
N         0.922975    0.187444   -0.028924
C         0.989318    1.625508   -0.077247
H         0.016502    2.036022   -0.349047
H         1.712314    1.951473   -0.828044
H         1.281829    2.042696    0.889531
C         2.151233   -0.535799    0.208280
H         1.930011   -1.599087    0.206249
H         2.581532   -0.258699    1.173261
H         2.879547   -0.313872   -0.574742
