7
0 2
F        -1.859423    0.040109   -0.000000
B        -0.651154   -0.468368   -0.000000
C         0.625621    0.388745    0.000000
C         1.833563   -0.167216    0.000000
H         0.541051    1.474235    0.000000
H         1.951155   -1.244185    0.000000
H         2.743270    0.421632    0.000000
