13
0 1
F        -2.404899   -1.118705    0.000001
B        -1.712535    0.006263   -0.000005
F        -2.406558    1.131894    0.000004
C        -0.171538    0.013746   -0.000002
C         0.554351    1.202696    0.000001
C         0.554813   -1.176359   -0.000003
N         1.878318   -1.239123   -0.000002
C         1.932784    1.152547    0.000003
C         2.544869   -0.090817    0.000001
H         0.036604    2.153470    0.000001
H         2.530082    2.053539    0.000005
H         0.032475   -2.126863   -0.000006
H         3.626724   -0.167187    0.000003
