7
0 2
F        -2.370748   -0.055440   -0.088357
B        -1.283927   -0.481021   -0.625115
S         0.385015    0.068466    0.102501
O         0.422715    1.486043    0.207190
O         0.626165   -0.795591    1.218573
O         1.427336   -0.314651   -1.032869
H         1.786410   -1.197802   -0.862384
