16
0 1
F        -3.638564    1.124731    0.000001
F        -3.638564   -1.124731    0.000002
B        -2.945502   -0.000000   -0.000003
C        -1.399174   -0.000000   -0.000001
C        -0.690513   -1.201003   -0.000000
H        -1.230958   -2.138583   -0.000000
C        -0.690514    1.201003   -0.000001
H        -1.230958    2.138583   -0.000002
F         3.638564   -1.124732    0.000001
F         3.638564    1.124731   -0.000000
B         2.945502    0.000000    0.000001
C         1.399174    0.000000   -0.000001
C         0.690513    1.201003   -0.000001
H         1.230958    2.138583   -0.000001
C         0.690514   -1.201003    0.000000
H         1.230959   -2.138583    0.000001
