18
0 1
F        -3.202763   -1.311431   -0.000002
F        -3.418776    0.927041   -0.000003
B        -2.611805   -0.124542   -0.000000
C        -1.086190    0.022811    0.000000
C        -0.478986    1.284558    0.000000
C         0.887817    1.419090    0.000001
C         1.697295    0.283641    0.000001
C        -0.258070   -1.095858    0.000001
H        -0.701528   -2.083431    0.000001
C         1.120358   -0.981565    0.000001
H         1.730634   -1.871429    0.000002
H        -1.099234    2.171674   -0.000000
O         3.025930    0.509257    0.000001
C         3.903493   -0.597383    0.000001
H         3.765138   -1.213060    0.891623
H         4.908044   -0.184497    0.000000
H         3.765137   -1.213060   -0.891621
H         1.362956    2.390218    0.000001
