12
0 2
F         2.921235   -0.000000    0.031055
N         0.383624    0.000000   -0.056046
C        -1.677358   -1.296719    0.031018
C        -0.961503   -0.000000   -0.120971
C        -1.677358    1.296719    0.031018
B         1.623467    0.000000   -0.000453
H        -1.147835   -2.097976   -0.485240
H        -2.690635   -1.235468   -0.366779
H        -1.759783   -1.592641    1.086367
H        -1.147838    2.097975   -0.485245
H        -1.759778    1.592644    1.086367
H        -2.690637    1.235467   -0.366774
