11
0 2
F         2.374681   -0.655367    0.155211
B         1.490460    0.123030   -0.396189
C         0.035371    0.344385    0.217805
O        -0.760099   -0.591134   -0.453646
O        -0.430868    1.660691    0.094208
C        -2.029874   -0.804256    0.137109
H        -1.921619   -1.189233    1.155949
H        -2.544268   -1.542197   -0.473314
H        -2.609687    0.119520    0.161520
H        -0.281335    1.954422   -0.811918
H         0.027239    0.143410    1.297817
