16
0 1
F        -3.560764   -1.125599   -0.000009
F        -3.560764    1.125599   -0.000012
B        -2.871953    0.000000    0.000003
C        -1.323538    0.000000    0.000008
C        -0.616387    1.201642    0.000007
C         0.764864    1.211394    0.000007
C         1.426816    0.000000    0.000008
C        -0.616387   -1.201642    0.000010
H        -1.155561   -2.139364    0.000010
C         0.764864   -1.211394    0.000010
H         1.330726   -2.129978    0.000010
N         2.902242    0.000000    0.000004
O         3.461632    1.074176   -0.000011
O         3.461632   -1.074176   -0.000011
H        -1.155561    2.139364    0.000005
H         1.330726    2.129977    0.000005
