9
0 1
F        -1.888140    1.155737    0.041450
F        -1.960003   -1.096543   -0.017407
B        -1.257265    0.006429    0.003473
P         0.677989   -0.004334   -0.113375
O         1.185904    0.226327   -1.466326
O         1.189875    1.070037    0.952115
H         1.495542    1.883890    0.533343
O         1.038398   -1.383141    0.578031
H         1.940818   -1.689566    0.422966
