15
0 2
F         1.927719   -1.200195   -0.181003
B         2.033783   -0.008890    0.358635
C         1.014064    1.141645    0.099056
C        -0.335244    0.715942   -0.486130
H         0.881361    1.726927    1.012597
C        -1.188646   -0.075466    0.495024
H        -0.172872    0.117068   -1.386061
H        -0.888337    1.603976   -0.804352
C        -2.531614   -0.484070   -0.088223
H        -1.345979    0.524122    1.396481
H        -0.643519   -0.968674    0.812822
H        -3.111410    0.390666   -0.388979
H        -3.126366   -1.045047    0.632979
H        -2.399982   -1.112341   -0.971005
H         1.537361    1.821194   -0.586999
