15
0 1
C         0.407273   -1.587504    0.481558
O         1.350751   -1.176136   -0.455211
C         2.050819    0.000066   -0.179847
O         1.350551    1.176120   -0.455346
C         0.407175    1.587590    0.481483
O        -0.902096    1.226559    0.141001
B        -1.450626   -0.000043   -0.026088
F        -2.729126   -0.000082   -0.389245
O        -0.901970   -1.226613    0.140821
H         2.911342    0.000095   -0.842046
H         2.371818    0.000156    0.870703
H         0.418198    2.674596    0.491462
H         0.663058    1.205470    1.476234
H         0.662993   -1.205195    1.476280
H         0.418369   -2.674508    0.491726
