7
0 1
F         1.929283   -0.841654    0.000019
F         1.301485    1.311572   -0.000002
B         0.950105    0.043743   -0.000018
Si        -0.982102   -0.572917   -0.000004
F        -1.948967    0.702485   -0.000001
H        -1.268662   -1.374758   -1.206275
H        -1.268645   -1.374751    1.206275
