19
0 1
F        -1.587852   -1.233102   -1.388453
B        -1.280267   -0.477317   -0.364262
F        -2.268638   -0.075734    0.412461
C         0.215582    0.037081   -0.094196
O         0.545049    0.146428    1.262914
O         0.328901    1.320610   -0.648761
O         1.069935   -0.802814   -0.776450
C         0.434374   -1.057209    1.993571
H         0.696925   -0.823938    3.022024
H         1.110432   -1.822111    1.607658
H        -0.590006   -1.445128    1.976044
C        -0.235124    2.402612    0.077694
H        -0.109946    3.278230   -0.554197
H         0.280454    2.552225    1.024263
H        -1.299415    2.251166    0.271470
C         2.436804   -0.409080   -0.806610
H         2.977726   -1.247357   -1.237287
H         2.811084   -0.206746    0.197540
H         2.571595    0.475548   -1.426654
