13
0 1
F        -2.414072   -1.125166    0.000000
B        -1.724384   -0.000000    0.000001
F        -2.414071    1.125166   -0.000002
C        -0.175555   -0.000001    0.000001
C         0.546954    1.188345   -0.000001
C         0.546955   -1.188345    0.000002
C         1.929727   -1.136790    0.000001
C         1.929727    1.136790   -0.000001
N         2.614421    0.000000   -0.000000
H         0.039305    2.143600   -0.000001
H         2.514398    2.049673   -0.000002
H         0.039306   -2.143601    0.000003
H         2.514399   -2.049672    0.000002
