17
0 2
F        -2.686777   -1.838889   -0.000000
B        -2.626674   -0.526415   -0.000000
C        -1.291641    0.242953   -0.000000
C        -0.083053   -0.466961   -0.000000
C         1.121018    0.214201    0.000000
C         1.123824    1.608365    0.000000
C        -1.273541    1.631801   -0.000000
H        -2.206722    2.178442   -0.000000
C        -0.062661    2.308784   -0.000000
H        -0.043260    3.390423   -0.000000
H         2.077981    2.117981    0.000000
H        -0.110446   -1.546608    0.000000
O         2.339093   -0.377203    0.000000
C         2.397292   -1.786725    0.000001
H         1.922223   -2.204571   -0.891069
H         1.922223   -2.204571    0.891070
H         3.452181   -2.045903    0.000001
