10
0 2
F        -2.480978   -0.174015   -0.000000
B        -1.342001   -0.823096    0.000001
C         0.012407   -0.065274    0.000000
N         1.027919   -0.842775   -0.000001
O         2.213935   -0.149628   -0.000000
H         2.882238   -0.843500   -0.000000
C         0.117378    1.430173    0.000000
H        -0.869075    1.887538    0.000001
H         0.670012    1.772316   -0.875999
H         0.670013    1.772316    0.875999
