8
0 1
F         1.730630    1.211378   -0.048374
F         1.924713   -1.050095    0.007997
B         1.195389    0.023841   -0.024596
S        -0.682836   -0.153382    0.039211
O        -1.090825   -1.207162   -0.818956
O        -1.041086   -0.111936    1.423942
O        -1.187540    1.198335   -0.629739
H        -1.394048    1.849468    0.057025
