15
0 1
F        -1.926969    1.020762   -0.643896
B        -1.275137   -0.011504   -0.156670
F        -1.923214   -1.158229   -0.080409
C         0.238283    0.076913    0.321449
O         0.910694   -0.315110   -0.865037
O         0.502292   -0.824275    1.375011
C         2.326652   -0.269156   -0.839813
H         2.694827    0.757353   -0.900807
H         2.667845   -0.818011   -1.714131
H         2.719237   -0.744639    0.060218
C         0.646607    1.448599    0.816773
H         0.561226    2.181777    0.016618
H         1.670856    1.428498    1.185404
H         0.002462    1.752957    1.640416
H         0.137732   -1.686259    1.144133
