14
0 2
F         2.618403    0.038401   -0.069573
B         1.507131   -0.636714   -0.146386
C         0.149512   -0.014902    0.432249
O        -0.869684   -0.930190    0.697614
O        -0.216228    0.978482   -0.485542
C        -1.316472   -1.663376   -0.426491
H        -2.029439   -2.397008   -0.058639
H        -0.482001   -2.177678   -0.912986
H        -1.804191   -1.015351   -1.157240
C        -1.191050    1.882883   -0.000336
H        -1.376023    2.605060   -0.791700
H        -0.823655    2.405252    0.888570
H        -2.119918    1.366804    0.249252
H         0.369302    0.436913    1.411725
