10
0 2
F        -2.973839   -0.358573   -0.022127
B        -1.705307   -0.449586    0.277689
O        -0.858695    0.512529   -0.160610
C         0.492616    0.504061   -0.030280
O         1.126720    1.500803    0.085699
O         0.962122   -0.733001   -0.090167
C         2.385178   -0.852108    0.025841
H         2.872115   -0.314568   -0.784797
H         2.592629   -1.915004   -0.037168
H         2.718398   -0.449710    0.979917
