10
0 1
F         1.753236   -0.670439    0.000004
F         0.695568    1.305581    0.000008
B         0.603936   -0.013926    0.000008
C        -0.759728   -0.763187   -0.000006
C        -2.001444    0.123110   -0.000010
H        -0.762437   -1.436697   -0.863704
H        -2.026483    0.769834   -0.877165
H        -2.026493    0.769825    0.877152
H        -0.762449   -1.436708    0.863682
H        -2.914022   -0.472443   -0.000018
