9
0 2
F        -2.498504    0.192653   -0.000035
B        -1.398261   -0.515681    0.000007
C         0.000257    0.181422    0.000009
N         1.061002   -0.507586    0.000026
H         0.047114    1.284383   -0.000034
C         2.328630    0.174655    0.000010
H         2.895887   -0.145291    0.875360
H         2.238615    1.267404   -0.000013
H         2.895887   -0.145328   -0.875325
