14
0 1
F         2.030508    0.215881    1.125501
F         2.030517    0.215855   -1.125502
B         1.377451    0.019461   -0.000002
C        -0.094428   -0.564618    0.000003
O        -0.119607   -1.789769    0.000011
N        -1.193064    0.216865   -0.000000
C        -1.114575    1.655822   -0.000006
H        -0.074744    1.981919   -0.000004
H        -1.598307    2.072766    0.886251
H        -1.598305    2.072759   -0.886267
C        -2.510906   -0.377093   -0.000003
H        -2.400809   -1.457363   -0.000006
H        -3.068277   -0.068783   -0.887064
H        -3.068280   -0.068791    0.887059
