10
0 1
B         1.080168   -0.000000   -0.040772
F         1.773467   -1.131855   -0.013625
F         1.773462    1.131859   -0.013624
N        -0.305802   -0.000003   -0.204217
C        -1.377091   -0.000005    0.436418
C        -2.721968    0.000002   -0.204492
H        -2.634237    0.000008   -1.288004
H        -3.286941    0.876620    0.120347
H        -3.286942   -0.876621    0.120337
H        -1.380113   -0.000001    1.534387
