8
0 1
F         1.612374   -0.762223    0.000007
F         0.679951    1.283607   -0.000010
B         0.512332   -0.028988   -0.000000
C        -0.889209   -0.668365    0.000005
C        -1.992603    0.070994   -0.000002
H        -0.976103   -1.749574    0.000014
H        -1.942239    1.153477   -0.000011
H        -2.983368   -0.367194    0.000001
