7
0 1
F         0.998521    1.324303   -0.000028
F         2.160810   -0.600843    0.000029
B         0.992209    0.013608    0.000003
C        -0.309495   -0.853949    0.000008
Cl        -1.817719    0.091534   -0.000006
H        -0.318412   -1.505775    0.873491
H        -0.318405   -1.505788   -0.873466
