7
0 1
F        -0.253473   -1.872398    0.000000
F        -2.147394   -0.648843   -0.000000
B        -0.844917   -0.698444   -0.000000
C        -0.000000    0.665567   -0.000000
O        -0.552656    1.731326   -0.000000
S         1.774928    0.569193    0.000000
H         1.854791   -0.767705    0.000000
