15
0 2
F        -4.148322   -0.554813    0.000015
B        -3.339950    0.476406    0.000002
C        -1.800238    0.321444   -0.000004
C        -0.970090    1.441104   -0.000008
H        -1.412885    2.428577   -0.000006
C        -1.220228   -0.950136   -0.000006
H        -1.855630   -1.826439   -0.000002
F         3.327109    0.913656    0.000022
F         3.092480   -1.323519    0.000022
B         2.520651   -0.132641   -0.000022
C         0.982364    0.028708   -0.000018
C         0.152519   -1.093222   -0.000014
H         0.593405   -2.081707   -0.000016
C         0.404043    1.297118   -0.000015
H         1.039978    2.172740   -0.000018
