12
0 2
F         2.067342   -0.213685    0.041488
B         0.891515   -0.788151    0.117638
C        -0.426291   -0.065962   -0.320931
C        -1.706103   -0.772539    0.114577
H        -1.713739   -1.816872   -0.196372
H        -2.584663   -0.284310   -0.310839
H        -1.810855   -0.752203    1.200689
C        -0.419944    1.414912    0.076444
H        -0.361875   -0.120390   -1.419589
H        -0.469461    1.527831    1.160983
H        -1.286633    1.926651   -0.344992
H         0.477594    1.924740   -0.272001
