19
0 2
F        -3.504333   -1.236829    0.000003
C        -1.234350   -0.186985    0.000003
B        -2.199154   -1.389430    0.000006
C         0.185132   -0.337882    0.000001
C         0.814237   -1.603136    0.000001
H         0.193478   -2.489026    0.000003
C         2.173256   -1.709885   -0.000001
H         2.637140   -2.687341   -0.000001
C         2.982274   -0.557685   -0.000004
H         4.059340   -0.658280   -0.000005
C         2.408106    0.677176   -0.000004
H         3.020975    1.569829   -0.000006
C         1.002294    0.819204   -0.000002
C         0.390942    2.092055   -0.000003
H         1.025523    2.969927   -0.000004
C        -0.966228    2.224095   -0.000001
H        -1.420476    3.205758   -0.000001
C        -1.776943    1.078817    0.000002
H        -2.853529    1.193092    0.000003
