9
0 2
F         3.063827    0.122223    0.011247
B         1.876233   -0.419727   -0.051345
P        -0.765535   -0.053269   -0.111368
O        -1.135315   -0.902543   -1.223512
O        -1.021113   -0.659001    1.331720
H        -1.564873   -1.454831    1.301897
O        -1.460937    1.355930   -0.117611
H        -1.191111    1.962223    0.581361
O         0.777792    0.366896    0.002249
