7
0 1
F         1.625355   -1.131490   -0.010543
F         1.625358    1.131491   -0.010544
F        -1.145812    1.080779   -0.612272
F        -1.145810   -1.080713   -0.612390
F        -1.078750   -0.000069    1.263047
C        -0.634282    0.000001   -0.009729
B         0.976526    0.000001   -0.019462
