7
0 2
B        -0.783357    0.668500    0.000001
F        -1.491625   -0.451861   -0.000006
O         0.540398    0.709171    0.000004
C         1.373336   -0.455766    0.000002
H         2.000860   -0.424065   -0.887857
H         0.776531   -1.366370   -0.000024
H         2.000825   -0.424094    0.887887
