12
0 1
F         1.958480    1.506520   -0.392530
B         1.878537    0.252338   -0.030100
F         2.971798   -0.432971    0.162387
C         0.460858   -0.468087    0.176051
O         0.330796   -1.629320    0.396867
O        -0.576977    0.425313    0.120966
C        -1.878399    0.009256   -0.170694
O        -2.101455   -0.874485   -0.925218
C        -2.864921    0.868964    0.543606
H        -2.777864    0.696692    1.616919
H        -3.868516    0.627201    0.208665
H        -2.642935    1.919617    0.361500
