9
0 2
F        -2.140228   -0.107612   -0.037358
B        -1.031499   -0.768324   -0.189190
C         0.397395   -0.038474   -0.031014
O         1.442603   -0.705102   -0.645926
H         1.316342   -1.652030   -0.523950
O         0.580406    0.055747    1.354391
H         1.493018    0.340364    1.507057
O         0.404078    1.219740   -0.631401
H        -0.190884    1.789560   -0.131360
