14
0 1
F        -2.362530    0.008419   -0.111113
O        -0.413666   -1.217368    0.018735
N        -0.316097    1.198758    0.085522
C         1.690890   -0.066241   -0.392156
C         1.133853    1.238561    0.154698
C         0.991629   -1.259909    0.230056
B        -1.028959   -0.005582   -0.000356
H         1.351675   -2.191485   -0.204883
H         1.182872   -1.296265    1.307031
H         2.762584   -0.130060   -0.198006
H         1.547425   -0.097203   -1.474741
H        -0.801390    2.077861    0.114097
H         1.513415    2.077339   -0.431515
H         1.474762    1.385128    1.185691
