12
0 1
H        -1.042392    2.112815   -0.000002
H         1.042392    2.112815   -0.000001
N         0.000000    0.151283    0.000000
B         0.000000    1.532974    0.000000
C         1.208704   -0.648241    0.000001
H         1.247704   -1.292462    0.883158
H         2.080607   -0.000369    0.000002
H         1.247706   -1.292461   -0.883158
C        -1.208704   -0.648241   -0.000000
H        -2.080607   -0.000369   -0.000001
H        -1.247706   -1.292461    0.883158
H        -1.247704   -1.292462   -0.883158
