17
0 1
H         2.741697    1.485220    0.000001
H         1.351042    2.988840   -0.000002
B         1.599810    1.822241    0.000000
C         0.445319    0.817458    0.000000
C         0.625013   -0.583853    0.000000
C        -0.490100   -1.406690   -0.000000
C        -1.772989   -0.881304   -0.000000
C        -0.863587    1.317565    0.000000
H        -1.002732    2.391269   -0.000000
C        -1.967972    0.487909    0.000000
H        -2.967811    0.900468   -0.000000
H        -0.356964   -2.481278   -0.000000
C         1.992175   -1.207453   -0.000000
H         2.566867   -0.906647    0.875548
H         2.566866   -0.906647   -0.875549
H         1.918917   -2.293730   -0.000000
H        -2.624097   -1.550490   -0.000000
