12
0 2
H        -3.355311   -0.654706    0.000001
B        -2.562297    0.230910    0.000000
C        -1.045066    0.130441    0.000000
C        -0.208162    1.251434    0.000000
C        -0.411146   -1.120482    0.000000
N         0.901169   -1.297692   -0.000000
C         1.159953    1.083233   -0.000000
C         1.662294   -0.208907   -0.000000
H        -0.644207    2.242112    0.000000
H         1.834113    1.928353   -0.000000
H        -1.012403   -2.023363    0.000000
H         2.733873   -0.377424   -0.000001
