15
0 2
H         4.716088   -0.000001    0.505684
B         3.689606   -0.000000   -0.067923
C         2.219123    0.000000   -0.012910
C         1.487829    1.212199   -0.015851
C         0.115371    1.210826   -0.006101
C        -0.561205    0.000000   -0.001834
C         1.487829   -1.212198   -0.015851
H         2.010522   -2.159274   -0.023989
C         0.115371   -1.210826   -0.006101
H        -0.447765   -2.131424   -0.000853
N        -2.017932   -0.000000    0.007489
O        -2.584376   -1.075131    0.011442
O        -2.584376    1.075131    0.011443
H         2.010522    2.159274   -0.023989
H        -0.447765    2.131424   -0.000853
