9
0 2
H         2.580438    0.061104    0.938413
B         2.340751   -0.071980   -0.225893
P        -0.348360    0.001043   -0.086919
O        -1.443935   -0.102379   -1.032359
O        -0.335896   -1.106247    1.045997
H        -0.922921   -1.842688    0.839203
O        -0.209962    1.356144    0.709947
H        -1.044408    1.830402    0.798893
O         1.103359   -0.110588   -0.741490
