18
0 1
H        -4.179516    0.576282   -0.000003
H        -3.870609   -1.459697   -0.000008
B        -3.428182   -0.351082   -0.000007
C        -1.924289   -0.124990   -0.000006
C        -1.368855    1.167216   -0.000002
C        -0.012409    1.373997    0.000001
C         0.853752    0.279758    0.000000
C        -1.026263   -1.197028   -0.000006
H        -1.418994   -2.206220   -0.000009
C         0.343364   -1.015084   -0.000004
H         1.000151   -1.871392   -0.000005
H        -2.034187    2.021504   -0.000001
O         2.167908    0.572621    0.000003
C         3.102804   -0.486500    0.000015
H         2.996755   -1.108368    0.891592
H         4.084050   -0.020920    0.000025
H         2.996776   -1.108370   -0.891564
H         0.414598    2.367403    0.000004
