9
0 1
H        -2.434744    1.065619   -0.392237
H        -2.260897   -0.868664   -1.103372
B        -1.790996    0.092061   -0.592032
P        -0.022121   -0.020793    0.081583
O        -0.105726   -0.623181    1.419074
O         0.949847   -0.831235   -0.905408
H         1.029945   -1.756647   -0.645407
O         0.584627    1.441678   -0.049831
H         1.522508    1.513177    0.166748
