7
0 2
H         3.285531   -0.228347    0.360242
B         2.260921    0.038785   -0.187876
S        -0.370371    0.152519   -0.411401
O         1.078109   -0.290639    0.336543
O        -0.827967    1.271326    0.361233
O        -1.167308   -1.142968    0.068952
H        -1.326879   -1.107631    1.027728
