7
0 1
H        -1.359597   -1.385283    0.000034
H        -2.306017    0.449728   -0.000058
B        -1.306112   -0.194296   -0.000005
C         0.103342    0.472888    0.000008
N         1.194439   -0.185739   -0.000000
H         1.000328   -1.189993   -0.000000
H         0.214718    1.559869    0.000004
