14
0 1
H         3.139642   -1.029625    0.000007
H         3.139642    1.029625    0.000007
B         2.537721    0.000000   -0.000003
C         1.007755    0.000000   -0.000002
C         0.283275   -1.198830   -0.000001
H         0.823689   -2.137145   -0.000002
C        -1.098374   -1.203109    0.000001
H        -1.642229   -2.138429    0.000002
C        -1.787658    0.000000    0.000002
C         0.283275    1.198830   -0.000001
H         0.823689    2.137145   -0.000002
C        -1.098374    1.203109    0.000001
H        -1.642229    2.138429    0.000002
H        -2.870192    0.000000    0.000004
