10
0 1
H        -2.251437   -1.291269    0.000004
H        -2.954305    0.651944    0.000005
B        -2.048057   -0.121648    0.000001
C        -0.580907    0.386035   -0.000004
N         0.375107   -0.453018   -0.000001
H        -0.346027    1.461620    0.000001
C         1.727752    0.038351    0.000001
H         2.243783   -0.360980    0.874935
H         1.797661    1.132723    0.000001
H         2.243787   -0.360982   -0.874929
