10
0 1
B         1.971401   -0.246686    0.000000
H         2.519246   -0.425854    1.044319
H         2.519237   -0.425858   -1.044323
N         0.686278    0.174562    0.000005
C        -0.497024    0.546436    0.000007
C        -1.674911   -0.374606   -0.000002
H        -2.296592   -0.186150    0.877757
H        -1.354229   -1.413610    0.000018
H        -2.296560   -0.186175   -0.877789
H        -0.720446    1.618160   -0.000048
