8
0 1
H         2.549476    0.157335   -0.000023
H         1.227051    1.768334    0.000048
S         0.148565   -0.567058   -0.000001
B         1.448365    0.600932    0.000008
C        -1.384934    0.398247   -0.000005
H        -1.964157    0.146482   -0.885125
H        -1.157507    1.460104   -0.000037
H        -1.964128    0.146531    0.885148
