8
0 1
H         3.154198    0.343798   -0.574094
H         2.312564   -0.467805    1.167787
B         2.219634    0.034732    0.090189
S        -0.381745   -0.160764    0.391326
O         0.993588    0.285258   -0.434316
O        -0.907271   -1.260487   -0.369315
O        -1.214184    1.148136    0.007833
H        -1.434066    1.139312   -0.939469
