7
0 2
B         1.395305    0.105162   -0.000003
H         1.556404    1.297272   -0.000021
O         0.221923   -0.491637    0.000006
C        -1.038483    0.181849   -0.000001
H        -1.589440   -0.122136   -0.887733
H        -0.898550    1.263144   -0.000031
H        -1.589425   -0.122087    0.887757
