11
0 2
H         1.590765    2.429299    0.338386
B         0.592608    1.806825    0.242293
P         0.062352    0.208273   -0.301896
C        -1.649104   -0.243602    0.144748
C         1.085780   -1.249520    0.132636
H        -2.290514    0.620279   -0.014813
H        -1.726032   -0.553515    1.186324
H        -1.997360   -1.056925   -0.490957
H         2.133223   -1.005991   -0.032568
H         0.822297   -2.091601   -0.506997
H         0.949244   -1.541034    1.173306
