10
0 2
B        -1.776370   -0.930316    0.164030
H        -2.175022   -1.950498   -0.279157
C        -0.563936   -0.061556   -0.062947
N         0.485515   -0.809470   -0.080795
O         1.654347   -0.081159    0.058778
H         2.341712   -0.755239    0.036653
C        -0.512047    1.433287   -0.016911
H        -1.510539    1.857969   -0.091518
H         0.107024    1.814954   -0.828615
H        -0.058816    1.769577    0.916975
