11
0 2
B        -2.436425   -0.768014   -0.626508
H        -3.342488   -1.503055   -0.486225
C        -1.308138   -0.085879    0.109300
O        -1.532947    0.926856    0.719735
O        -0.058704   -0.672470    0.045638
C         1.070737    0.104935   -0.156463
O         1.027330    1.181264   -0.652196
C         2.288183   -0.633134    0.292881
H         2.305553   -1.629647   -0.145969
H         2.253520   -0.751604    1.376126
H         3.175418   -0.076358    0.008882
