12
0 2
H         3.427634   -0.000000    0.057110
N         1.016077   -0.000000   -0.021902
C        -1.044928    1.294293    0.014716
C        -0.311964    0.000000   -0.080592
C        -1.044928   -1.294292    0.014716
B         2.262006    0.000000    0.023255
H        -0.452002    2.108501   -0.399876
H        -1.270060    1.551027    1.058293
H        -1.997579    1.246934   -0.514969
H        -0.452006   -2.108500   -0.399884
H        -1.997584   -1.246931   -0.514962
H        -1.270052   -1.551032    1.058293
