9
0 2
B        -1.969986   -0.273346    0.000001
H        -3.066127   -0.670917   -0.000000
N        -0.800940    0.159108   -0.000000
C         0.455305    0.582783   -0.000000
C         1.585842   -0.382272    0.000000
H         1.550854   -1.034286   -0.878563
H         1.550857   -1.034282    0.878567
H         2.541830    0.138535   -0.000003
H         0.632211    1.650851    0.000001
