23
0 1
C         0.319551   -1.350180    0.139869
C         1.743316   -1.063722   -0.321734
C         2.242487    0.272973    0.213378
C         1.291699    1.404311   -0.158603
C        -0.130168    1.108393    0.301798
C        -2.063778   -0.498487    0.262194
C        -0.646497   -0.227164   -0.229870
B        -3.207744    0.402170   -0.259904
H        -3.067189    1.082548   -1.232301
H        -4.279567    0.380956    0.264813
H         0.309908   -1.476428    1.228721
H        -0.032925   -2.294254   -0.283466
H         1.768979   -1.044102   -1.416249
H         2.410150   -1.870198   -0.010076
H         3.245857    0.481666   -0.163132
H         2.323371    0.215677    1.303969
H         1.296673    1.535248   -1.245592
H         1.637581    2.347269    0.269586
H        -0.801921    1.913440   -0.007943
H        -0.158430    1.082886    1.397572
H        -2.084986   -0.586966    1.354563
H        -2.392739   -1.498276   -0.078831
H        -0.675699   -0.157055   -1.324301
