9
0 2
H         3.215568   -0.324921    0.000024
B         2.073285   -0.077585   -0.000008
C         0.686231    0.313081    0.000001
N        -0.330068   -0.511862    0.000000
H         0.516835    1.405210    0.000002
C        -1.644979    0.067904    0.000000
H        -2.197872   -0.280742   -0.876126
H        -1.640112    1.166256    0.000008
H        -2.197878   -0.280754    0.876118
