20
0 1
H        -1.243787    3.226920   -0.000001
H        -3.122710    2.422648   -0.000000
C        -1.402571    0.830195   -0.000000
B        -1.941218    2.262644    0.000002
C        -0.008628    0.479127   -0.000000
C         1.023455    1.443507   -0.000000
H         0.760782    2.490344    0.000000
C         2.337014    1.073763    0.000000
H         3.108379    1.832624    0.000000
C         2.700684   -0.284437   -0.000000
H         3.746055   -0.562578   -0.000000
C         1.732835   -1.242647   -0.000000
H         1.996905   -2.292834   -0.000000
C         0.365684   -0.888141   -0.000000
C        -0.640015   -1.880442   -0.000000
H        -0.337602   -2.920792   -0.000000
C        -1.960960   -1.546603    0.000000
H        -2.721236   -2.315982    0.000000
C        -2.330581   -0.193643    0.000000
H        -3.382194    0.062353    0.000000
