10
0 1
H        -1.817894   -0.671549    1.024747
H        -1.817885   -0.671568   -1.024743
B        -1.350233   -0.274888    0.000000
C        -0.093097    0.636483   -0.000004
C         1.118347   -0.324983    0.000003
H        -0.030058    1.273503   -0.883923
H         1.122111   -0.968238   -0.881140
H         1.122109   -0.968228    0.881154
H        -0.030060    1.273515    0.883907
H         2.051341    0.238005    0.000001
