22
0 2
C         0.232931   -1.334605    0.161551
C         1.673831   -1.097271   -0.273850
C         2.194750    0.241821    0.234164
C         1.282103    1.385395   -0.192332
C        -0.156981    1.139162    0.242457
C        -2.128810   -0.426517    0.201109
C        -0.691865   -0.197464   -0.264679
B        -3.243085    0.490267   -0.318197
H        -4.384303    0.532036    0.020330
H         0.194555   -1.428500    1.253096
H        -0.133730   -2.281503   -0.243139
H         1.725103   -1.110718   -1.367486
H         2.312044   -1.910769    0.076885
H         3.211481    0.413817   -0.124553
H         2.249397    0.214455    1.327556
H         1.315293    1.485062   -1.282057
H         1.641988    2.331331    0.217200
H        -0.804346    1.947564   -0.106841
H        -0.210320    1.145528    1.337769
H        -2.170075   -0.464487    1.299879
H        -2.472002   -1.429856   -0.108028
H        -0.695418   -0.158413   -1.360146
