15
0 2
H        -3.479834    1.030379    0.022182
H        -3.479834   -1.030378    0.022182
B        -2.877512    0.000000    0.017008
C        -1.356354    0.000000    0.005023
C        -0.618727   -1.199664   -0.000689
H        -1.156610   -2.139657    0.005020
C        -0.618726    1.199664   -0.000689
H        -1.156610    2.139657    0.005020
H         4.018210    0.000001    0.410772
B         2.944696    0.000000   -0.064428
C         1.486469   -0.000000   -0.010491
C         0.750869    1.214690   -0.012169
H         1.276184    2.161154   -0.020486
C         0.750869   -1.214690   -0.012169
H         1.276183   -2.161154   -0.020486
