7
0 2
H        -1.557147    1.778915   -0.000029
S        -0.239336   -0.547407    0.000005
B        -1.516873    0.595660   -0.000002
C         1.337982    0.386755   -0.000004
H         1.902334    0.113507    0.888209
H         1.138328    1.453767   -0.000014
H         1.902333    0.113490   -0.888211
