7
0 1
H         2.353510   -0.206460    0.512740
H         1.459723   -1.266227   -1.032850
B         1.389879   -0.565404   -0.079384
C        -0.025250   -0.023808    0.380137
F        -0.084434    1.229064   -0.204339
F        -1.072341   -0.747674   -0.108289
H        -0.200147    0.110043    1.449858
