11
0 2
H         1.642746    1.834088   -0.000000
N         0.042459    0.216408   -0.000000
B         0.496017    1.508969   -0.000000
C         0.922107   -0.943347    0.000001
H         0.743705   -1.560705    0.884514
H         1.959439   -0.620594    0.000001
H         0.743706   -1.560705   -0.884513
C        -1.366659   -0.134578   -0.000000
H        -1.968671    0.769720   -0.000001
H        -1.615454   -0.726974    0.884749
H        -1.615453   -0.726975   -0.884749
