10
0 1
H         2.205329   -0.779334    0.617030
H         1.117038   -1.954968   -0.681588
B         1.202874   -0.989067    0.010270
C         0.055897    0.063025    0.043437
C        -1.391189   -0.319722    0.033260
N         0.366394    1.296053   -0.076411
H        -1.605311   -0.973789   -0.814457
H        -2.017089    0.569072   -0.022227
H        -1.644254   -0.880941    0.935894
H         1.376913    1.433104   -0.011310
