7
0 1
H        -2.053388    1.016608    0.002441
H        -2.053387   -1.016609    0.002441
B        -1.434198    0.000000   -0.020255
Si         0.570722    0.000000   -0.004435
H         0.963485   -0.000007    1.429785
H         1.162085   -1.201997   -0.635658
H         1.162087    1.202003   -0.635646
