16
0 2
H        -1.226281    3.175097    0.057913
B        -1.427234    2.006535   -0.047396
C        -0.397219    0.889834    0.001110
C        -0.730232   -0.480523   -0.008922
C         0.289011   -1.421774   -0.012174
C         1.619008   -1.038969   -0.006786
C         0.960901    1.249624    0.016161
H         1.218438    2.301036    0.030536
C         1.964046    0.302741    0.006806
H         3.003480    0.601803    0.012052
H         0.038034   -2.475242   -0.023754
C        -2.157135   -0.942495    0.015589
H        -2.818875   -0.207679   -0.438146
H        -2.492807   -1.088157    1.044668
H        -2.269054   -1.894166   -0.503106
H         2.392951   -1.795988   -0.013886
