7
0 1
H         2.037138   -0.562899    1.036189
H         2.037146   -0.562906   -1.036181
B         1.476263   -0.433024    0.000001
C        -0.008814    0.053367   -0.000006
O        -0.186112    1.247065    0.000009
O        -1.008533   -0.833357   -0.000006
H        -1.845556   -0.338941   -0.000002
