17
0 2
H        -4.352488    0.340114   -0.000008
B        -3.469420   -0.458844   -0.000008
C        -1.978942   -0.205267   -0.000005
C        -1.461132    1.105079   -0.000002
C        -0.110979    1.349016    0.000001
C         0.785606    0.279569    0.000001
C        -1.050855   -1.252303   -0.000006
H        -1.416967   -2.270851   -0.000009
C         0.312051   -1.029459   -0.000003
H         0.992895   -1.866645   -0.000004
H        -2.148829    1.941126   -0.000001
O         2.089939    0.609276    0.000003
C         3.055594   -0.422601    0.000012
H         2.967468   -1.046920    0.891699
H         4.022631    0.071652    0.000021
H         2.967485   -1.046920   -0.891677
H         0.287338    2.354261    0.000004
