12
0 2
C         0.199042    1.241213   -0.000000
C        -1.165502    1.128633   -0.000000
C        -1.741857   -0.141496    0.000000
N        -1.029985   -1.271327    0.000000
C         0.278307   -1.173083   -0.000000
C         0.990230    0.063558    0.000000
H        -1.799210    2.004862   -0.000000
H        -2.819186   -0.255620    0.000000
H         0.703524    2.197740   -0.000000
H         0.845820   -2.100181    0.000000
N         2.312658    0.158971    0.000000
H         2.729020   -0.773258    0.000000
