19
0 1
C        -2.989215   -0.065761   -0.011354
N        -1.626651    0.234386    0.000740
O        -3.443904   -1.161061   -0.095386
O        -3.801016    1.012546    0.076056
B        -0.582212   -0.723332    0.007333
C         0.904522   -0.287681    0.001307
H        -3.318367    1.832274    0.222318
C         1.888694   -1.277112    0.041418
C         1.330657    1.042563   -0.042212
C         2.671939    1.371930   -0.044691
C         3.627974    0.368063   -0.002590
C         3.235609   -0.958232    0.040476
H         3.979441   -1.743216    0.072514
H         1.585034   -2.315742    0.073870
H         0.607658    1.850145   -0.077996
H         2.977363    2.409292   -0.079814
H         4.679646    0.623181   -0.004304
H        -0.884632   -1.868588    0.024823
H        -1.390247    1.214114   -0.012745
