18
0 1
C        -0.064715   -0.446103   -0.199646
B        -2.620513   -0.397668   -0.067625
N        -2.807454    0.872102    0.497166
H        -3.724007    1.202502    0.735709
H        -2.064134    1.472185    0.807332
C         0.209792    0.903809   -0.402657
C         1.492080    1.392983   -0.222775
C         2.526950    0.549724    0.141882
C         2.264025   -0.798696    0.321295
C         0.983466   -1.290896    0.158132
H         0.781842   -2.343193    0.317613
H        -0.575992    1.562410   -0.744140
H         1.684751    2.445094   -0.388206
H         3.528010    0.935749    0.275828
H         3.062366   -1.474454    0.599083
N        -1.352845   -0.967411   -0.371283
H        -3.580300   -1.068652   -0.299164
H        -1.357463   -1.941070   -0.624493
