8
0 2
B         0.086207   -0.550062    0.000006
N         1.299455    0.102715   -0.000004
C        -1.331543    0.093234    0.000001
H        -1.302371    1.189609   -0.000019
H        -1.902420   -0.228953    0.873014
H        -1.902430   -0.228984   -0.872993
H         2.186057   -0.371319    0.000002
H         1.383199    1.111550   -0.000017
