22
0 1
C         1.751901   -1.498296    0.000001
C         3.030164   -1.023789    0.000002
C         3.277162    0.362462    0.000002
C         2.235083    1.242026    0.000001
C         0.901745    0.780999   -0.000000
C         0.652424   -0.611065   -0.000000
H         1.563143   -2.564587    0.000001
H         3.863209   -1.714242    0.000003
H         4.296246    0.725086    0.000003
H         2.417116    2.309561    0.000001
C        -0.682237   -1.068237   -0.000001
C        -1.734576   -0.196235   -0.000002
C        -0.205241    1.659880   -0.000001
C        -1.482647    1.195176   -0.000002
H        -0.021996    2.727102   -0.000002
H        -2.312258    1.885130   -0.000004
B        -4.275426   -0.033643    0.000004
H        -0.866384   -2.136815   -0.000001
N        -3.051511   -0.695201   -0.000003
H        -4.332051    1.153091    0.000017
H        -5.259567   -0.703403    0.000008
H        -3.072416   -1.703824   -0.000009
