15
0 1
B         2.194620   -0.000001   -0.189095
N         0.937609   -0.000002    0.380725
C        -0.346031    0.000000   -0.306998
C        -1.134969   -1.258403    0.024183
H        -1.355368   -1.304085    1.093621
H        -0.569842   -2.150468   -0.243620
C        -1.134966    1.258405    0.024185
H        -2.084383   -1.274890   -0.511982
H        -0.115044    0.000000   -1.373382
H        -2.084380    1.274896   -0.511980
H        -1.355364    1.304086    1.093623
H        -0.569835    2.150469   -0.243618
H         3.152410   -0.000002    0.521668
H         2.291496    0.000004   -1.379222
H         0.849742   -0.000005    1.387072
