9
0 2
N         1.222569   -0.435839   -0.000001
C        -1.210275   -0.201120   -0.000005
C         0.134996    0.496021    0.000005
H         0.223940    1.163025   -0.871674
H         0.223936    1.163005    0.871700
H        -1.309485   -0.834815    0.881072
H        -2.027383    0.521233    0.000002
H        -1.309482   -0.834794   -0.881096
H         2.092163    0.103818   -0.000002
