21
0 1
C         1.834804   -1.753069   -0.212566
C         0.539745   -1.301341   -0.398340
C         2.841006   -0.857759    0.095200
C         2.536107    0.488477    0.210794
C         1.243903    0.961800    0.049421
C         0.226141    0.046775   -0.251175
H         2.055757   -2.805530   -0.331121
H        -0.232004   -1.993858   -0.708201
B        -2.293624   -0.129302    0.032582
O        -2.342624   -1.293653    0.750818
O        -3.466144    0.507128   -0.268884
H         3.322342    1.195685    0.445054
H         3.857511   -1.199159    0.234429
C         0.932777    2.420649    0.199765
H         1.816917    2.974007    0.509804
H         0.149512    2.584801    0.942192
H         0.585217    2.861892   -0.738614
H        -4.230859    0.055620    0.096918
H        -1.483233   -1.644847    0.998907
N        -1.091459    0.492373   -0.409249
H        -1.189587    1.430291   -0.761601
