19
0 1
N         0.209178   -0.113941   -0.355772
N         0.765406   -1.308878    0.000040
B         0.904217    1.164987   -0.139453
O         0.143589   -2.316958   -0.236731
O         1.867969   -1.297771    0.538400
O         2.112209    1.285536    0.437873
O         0.223169    2.257508   -0.577323
C        -1.120156   -0.190335   -0.968861
C        -2.247886   -0.417055    0.028379
H        -1.106486   -0.980142   -1.716374
H        -1.253930    0.760886   -1.476552
C        -2.370238    0.679157    1.075317
H        -2.118144   -1.387782    0.507222
H        -3.172633   -0.480881   -0.549777
H        -1.478098    0.737688    1.700281
H        -3.216163    0.488972    1.735331
H        -2.513492    1.656429    0.612969
H         0.712135    3.070162   -0.418021
H         2.457837    0.412345    0.685536
