14
0 1
N        -0.204796   -0.583780    0.331147
B         1.046489   -0.029957    0.024685
O         1.163872    1.342379   -0.053470
O         2.097859   -0.900635   -0.181645
C        -1.435370    0.142709    0.556316
C        -2.460552   -0.069900   -0.545890
H        -2.718611   -1.126551   -0.641060
H        -2.066498    0.267193   -1.505030
H        -3.378927    0.481249   -0.336173
H        -1.184838    1.199853    0.629916
H        -1.867917   -0.146024    1.519361
H         2.040971    1.675546   -0.244670
H         2.938771   -0.499010   -0.401969
H        -0.280144   -1.586811    0.356544
