9
0 2
B         0.000000   -0.561891   -0.037100
C        -1.395850    0.097367   -0.009562
C         1.395850    0.097367   -0.009562
H         1.629237    0.264441    1.050883
H         1.423237    1.078515   -0.496588
H         2.200223   -0.522429   -0.404173
H        -1.423237    1.078516   -0.496586
H        -1.629238    0.264439    1.050883
H        -2.200222   -0.522428   -0.404175
