11
0 1
N         0.017479   -0.219791   -0.000002
B        -1.225636    0.437078   -0.000005
O        -2.353939   -0.330857    0.000002
C         1.263271    0.390560    0.000000
C         2.432172   -0.234409    0.000002
H         1.214460    1.472736   -0.000001
H         2.503895   -1.314831    0.000003
H         3.352199    0.328792    0.000003
H        -3.167636    0.175382    0.000007
H        -1.269034    1.631037   -0.000000
H         0.030794   -1.230027   -0.000001
