11
0 2
C        -0.595145    0.050197    0.008645
O        -0.649270    1.265214   -0.033439
C         0.678031   -0.743228   -0.019447
C         1.926363    0.115841    0.029028
H         0.647851   -1.363723   -0.918315
H         0.641215   -1.447436    0.816959
H         1.966796    0.792151   -0.822992
H         2.818278   -0.509322    0.016440
H         1.949221    0.726768    0.930761
N        -1.769464   -0.671571   -0.045470
H        -2.498452   -0.156011    0.453588
