20
0 1
C        -1.017062    1.055548    0.000001
C         0.344939    0.846539    0.000000
C        -1.878853   -0.025000    0.000000
C        -1.399706   -1.321518   -0.000001
C        -0.040069   -1.528152   -0.000001
C         0.854173   -0.453760   -0.000000
H         0.344618   -2.540647   -0.000002
H        -1.423150    2.055497    0.000001
H         1.020302    1.685776    0.000001
B         3.358545    0.133500   -0.000001
O         4.632820   -0.371580   -0.000001
O         3.214342    1.487306   -0.000000
N        -3.319353    0.204151    0.000001
O        -3.711366    1.353463    0.000002
O        -4.047877   -0.768187    0.000000
H        -2.094268   -2.147342   -0.000001
H         4.062406    1.940296   -0.000001
H         4.727963   -1.325254   -0.000003
N         2.216681   -0.728170   -0.000000
H         2.404232   -1.717661   -0.000000
