15
0 1
C         0.889730   -0.834300   -0.172809
B        -1.474741    0.069247   -0.011765
O        -1.192476    1.392641   -0.210508
O        -2.774124   -0.313185    0.177541
C         1.649128    0.157863    0.280482
C         3.116557    0.260398    0.018770
H         1.207073    0.923703    0.910257
H         3.474008   -0.593447   -0.557594
H         3.682753    0.298741    0.952010
H         3.367174    1.164993   -0.540368
H        -0.267996    1.557436   -0.418923
H        -3.383272    0.427568    0.125862
N        -0.489574   -0.959966   -0.019440
H         1.357563   -1.640247   -0.731491
H        -0.836265   -1.904625   -0.039767
