11
0 2
N         0.170775   -0.000009   -0.616721
N        -1.125647    0.000004   -0.091588
O        -1.624553    1.081991    0.083289
O        -1.624575   -1.081975    0.083282
C         1.136941   -0.000021    0.456915
C         2.543241    0.000011   -0.097202
H         0.948989   -0.880652    1.084373
H         0.948966    0.880566    1.084428
H         2.716554   -0.883174   -0.710158
H         3.264993   -0.000017    0.718761
H         2.716538    0.883250   -0.710084
