17
0 1
N        -0.152160    0.413730   -0.235398
B         1.072059   -0.254884   -0.018317
O         2.186062    0.473998    0.319756
O         1.234630   -1.620766   -0.124700
C        -1.380239   -0.268447   -0.584320
C        -2.269711   -0.589492    0.609481
H        -1.146882   -1.188920   -1.125799
H        -1.932614    0.352025   -1.296667
H        -2.540991    0.316626    1.151133
H        -1.756270   -1.253295    1.306220
C        -0.277384    1.845111   -0.059452
H        -0.979085    2.096792    0.741455
H        -0.634566    2.320557   -0.978549
H         0.689565    2.268702    0.194090
H        -3.191990   -1.075807    0.287814
H         2.952446   -0.090788    0.444226
H         0.443678   -2.116476   -0.339260
