7
0 1
B        -1.665665    0.411155    0.000002
C         0.727677   -0.082726    0.000008
N         1.828531    0.236939   -0.000012
N        -0.561995   -0.464443    0.000004
H        -1.463289    1.578070    0.000002
H        -2.745771   -0.078918   -0.000003
H        -0.694422   -1.466040    0.000002
