9
0 2
C        -1.437147    0.286028    0.027105
N        -0.282397   -0.472841   -0.015607
C         0.988031    0.056254    0.003215
O        -2.529089   -0.206238    0.002598
H        -1.238937    1.363006    0.085791
O         1.233409    1.242555   -0.033280
H        -0.385123   -1.475990   -0.074313
N         1.977634   -0.916138   -0.031966
H         2.817541   -0.508399    0.385069
