15
0 1
C         0.000947    1.104594   -0.000004
C         1.371027    1.270681   -0.000004
C         2.189929    0.154053   -0.000002
N         1.709708   -1.081724    0.000000
C         0.396870   -1.237555    0.000001
C        -0.511238   -0.184122   -0.000001
H         1.803159    2.261888   -0.000006
H         3.268574    0.256251   -0.000002
H        -0.660258    1.958359   -0.000007
B        -2.982060    0.393025    0.000017
H         0.029288   -2.260666    0.000003
N        -1.888055   -0.467427   -0.000000
H        -2.826518    1.571382    0.000017
H        -4.066985   -0.094790   -0.000006
H        -2.073733   -1.459399   -0.000013
