19
0 2
C        -0.711357    1.905844    0.000000
C        -2.077584    1.919228    0.000000
C        -2.795670    0.713373    0.000000
C        -2.131517   -0.487798    0.000000
C        -0.732531   -0.533369    0.000000
C         0.000000    0.683984    0.000000
H        -0.151829    2.832472    0.000000
H        -2.610853    2.860317    0.000000
H        -3.877169    0.733364    0.000000
H        -2.686435   -1.417588    0.000000
C         1.400029    0.641198    0.000000
C         2.108851   -0.580201    0.000000
C        -0.014176   -1.769507    0.000000
C         1.332429   -1.799859    0.000000
H        -0.582730   -2.691357    0.000000
H         1.865079   -2.743031    0.000000
H         1.978370    1.555506    0.000000
N         3.427198   -0.542414    0.000000
H         3.804342   -1.490152    0.000000
