16
0 2
C         1.565218    1.189430    0.069356
C         0.201790    1.198303   -0.169850
C         2.239173   -0.013785    0.194835
C         1.543477   -1.205482    0.077925
C         0.180223   -1.192735   -0.161564
C        -0.505021    0.008657   -0.287481
H        -0.320036    2.142333   -0.273557
H         2.103951    2.124119    0.152280
H         2.064768   -2.148918    0.172275
H         3.305117   -0.022646    0.379166
H        -0.361762   -2.125810   -0.253218
C        -1.998197    0.008955   -0.489161
N        -2.753979   -0.080781    0.733072
H        -2.302343   -0.806913   -1.147858
H        -2.298051    0.941585   -0.990838
H        -2.273773    0.501659    1.425887
