15
0 2
C         1.145523    1.792670    0.000000
C         2.115377    0.820630    0.000000
C        -0.201776    1.446461   -0.000000
C        -0.540774    0.098570   -0.000001
C         0.392600   -0.900255   -0.000001
C         1.773267   -0.561583   -0.000000
H         0.103288   -1.939532   -0.000002
H         1.424573    2.837218    0.000001
H         3.163489    1.092447    0.000001
H        -0.981718    2.191454   -0.000001
N        -1.970339   -0.265982   -0.000002
O        -2.775744    0.639669    0.000002
O        -2.249475   -1.443251    0.000001
N         2.653677   -1.555387   -0.000000
H         3.603453   -1.182307    0.000001
