10
0 1
N         0.090883   -0.402578    0.169378
B        -1.267961    0.165544    0.007476
N         1.293517    0.246309    0.003385
O        -2.245188   -0.755705   -0.059939
O        -1.465912    1.490775   -0.037187
O         2.279081   -0.411074   -0.145436
O         1.218631    1.464959    0.054946
F         0.235343   -1.740789    0.041965
H        -0.638754    1.992128    0.015196
H        -3.123218   -0.370511   -0.138675
