19
0 1
B        -2.938235   -0.000041    0.347409
C        -0.406525   -0.000025    0.208575
C         0.450682    1.191697   -0.213123
C         0.450690   -1.191633   -0.213398
C         1.881991   -0.775482    0.141203
H         0.346559   -1.327115   -1.294175
H         0.137026   -2.120979    0.260572
C         1.882099    0.775411    0.140974
H         2.607442   -1.186740   -0.559135
H         2.152811   -1.152445    1.127550
H         2.153515    1.152654    1.127045
H         2.607245    1.186319   -0.559885
H         0.137146    2.120875    0.261259
H         0.346297    1.327600   -1.293820
N        -1.743186    0.000052   -0.344059
H        -0.514271   -0.000168    1.295504
H        -2.917018   -0.000202    1.541071
H        -3.961050    0.000043   -0.265963
H        -1.755849    0.000192   -1.354035
