19
0 2
C        -1.105957    1.258039   -0.206123
C         0.370049    1.256296    0.173912
C        -1.811343   -0.000000    0.285901
H        -1.196951    1.322321   -1.294748
H        -1.590224    2.148526    0.198724
C        -1.105956   -1.258040   -0.206122
H        -2.853685   -0.000001   -0.038002
H        -1.824036   -0.000000    1.380730
C         0.370049   -1.256296    0.173912
H        -1.196950   -1.322322   -1.294748
H        -1.590223   -2.148527    0.198724
C         1.077393    0.000000   -0.350913
H         0.870027   -2.144439   -0.214623
H         0.469838   -1.282927    1.264591
H         0.469837    1.282928    1.264591
H         0.870025    2.144440   -0.214624
N         2.468827   -0.000000   -0.006887
H         1.005034   -0.000000   -1.443898
H         2.520112    0.000005    1.018096
