12
0 2
N        -0.246112    1.415930   -0.187066
C         0.005522    0.100046    0.335008
C        -1.089713   -0.880105   -0.093799
H        -1.127079   -0.951782   -1.181518
H        -2.069848   -0.561324    0.263336
C         1.387388   -0.372567   -0.082013
H        -0.888415   -1.874227    0.305680
H        -0.029805    0.169696    1.434581
H         1.623902   -1.340000    0.362655
H         1.439010   -0.469827   -1.167461
H         2.144652    0.346736    0.226636
H        -1.188814    1.684969    0.110370
