12
0 2
C        -0.000000    0.998227    0.000000
C         1.209307    0.262139    0.000000
C         1.160460   -1.112011    0.000000
N         0.024199   -1.811894    0.000000
C        -1.124959   -1.132453    0.000000
C        -1.197830    0.239908    0.000000
H         2.146930    0.799487    0.000000
H         2.075754   -1.692317    0.000000
H        -2.030107   -1.728735    0.000000
H        -2.156600    0.742606    0.000000
N         0.057240    2.330101    0.000000
H        -0.887927    2.716652    0.000000
