9
0 2
B        -0.000000   -0.561891   -0.037100
C        -1.395850    0.097366   -0.009562
H        -1.423240    1.078507   -0.496604
H        -1.629228    0.264460    1.050882
H        -2.200227   -0.522435   -0.404157
C         1.395850    0.097367   -0.009562
H         2.200218   -0.522423   -0.404191
H         1.629247    0.264421    1.050884
H         1.423235    1.078524   -0.496571
