19
0 2
C         1.079514   -0.059087    0.287987
C         0.406953    1.235106   -0.193362
C        -1.062062    1.286858    0.211598
C        -1.820152    0.055289   -0.268658
C        -1.157588   -1.225780    0.223108
C         0.308950   -1.284181   -0.184925
H         0.491527    1.281367   -1.282957
H         0.944272    2.098623    0.206090
H        -1.521742    2.195088   -0.182682
H        -1.132264    1.349736    1.302290
H        -1.843479    0.051205   -1.363158
H        -2.858269    0.099448    0.066036
H        -1.687579   -2.099080   -0.160906
H        -1.233455   -1.272834    1.314741
H         0.789116   -2.181915    0.206695
H         0.391566   -1.335128   -1.274647
N         2.450498   -0.131997   -0.125176
H         1.061918   -0.035936    1.392004
H         2.911216    0.724170    0.198236
