15
0 2
C        -0.014021   -0.000001    0.065923
C         0.611586   -1.254566   -0.555259
H         0.212008   -2.154836   -0.088559
H         1.695839   -1.253954   -0.432102
C         0.611556    1.254574   -0.555272
H         1.695808    1.253993   -0.432113
H         0.211951    2.154839   -0.088586
H         0.390370    1.296265   -1.622629
H         0.390400   -1.296278   -1.622615
C        -1.523465   -0.000020   -0.146531
H        -1.771510   -0.000030   -1.208753
H        -1.969425    0.881164    0.314201
H        -1.969404   -0.881209    0.314212
N         0.247620    0.000017    1.487392
H         1.266686    0.000003    1.602033
