12
0 1
B        -1.899038    0.030319    0.330376
N        -0.721190   -0.266338   -0.326016
C         1.665244   -0.242175    0.314014
C         0.506476    0.508507   -0.318098
H         0.306640    1.428127    0.230713
H         0.766411    0.795688   -1.341032
H         1.867883   -1.172512   -0.220226
H         2.574361    0.359862    0.290498
H         1.441781   -0.491357    1.351502
H        -1.964876    1.031472    0.977555
H        -2.820013   -0.721226    0.233635
H        -0.658988   -1.115272   -0.867916
