13
0 2
C         0.000000    1.012166    0.000000
C         1.223606    0.284310    0.000000
C         1.226110   -1.086944    0.000000
C         0.023723   -1.793693    0.000000
C        -1.191109   -1.108807    0.000000
C        -1.212022    0.262614    0.000000
H        -2.152556    0.800009    0.000000
H         2.141337    0.855917    0.000000
H         2.164401   -1.625592    0.000000
H         0.032563   -2.875202    0.000000
H        -2.119993   -1.663678    0.000000
N         0.057073    2.337947    0.000000
H        -0.887111    2.725046    0.000000
