22
0 1
B         2.192097    0.008313    0.035524
C         2.178389    1.472184    0.614957
C        -0.341888   -0.350206   -0.154933
C         3.566156   -0.725610   -0.201012
H         4.092306   -0.855085    0.749145
H         4.226874   -0.115139   -0.822527
H         3.480957   -1.707577   -0.670882
H         2.249680    2.201330   -0.198629
H         3.048946    1.644136    1.250098
H         1.281981    1.718756    1.183691
C        -1.268399   -1.314744    0.228101
C        -0.790756    0.933410   -0.440574
C        -2.132884    1.246986   -0.315794
C        -3.049988    0.286214    0.073570
C        -2.609828   -1.000254    0.337167
H        -3.314409   -1.764721    0.637191
H        -0.925608   -2.317723    0.451564
H        -2.464870    2.252059   -0.540816
H        -4.098542    0.534897    0.163196
H        -0.090032    1.681047   -0.779842
N         1.015700   -0.704856   -0.271605
H         1.137514   -1.667449   -0.547466
