19
0 1
C         0.009500   -0.363133    0.160917
C        -0.289137    0.993523    0.182591
C        -1.594834    1.429394    0.049697
C        -2.623322    0.513570   -0.107649
C        -2.335556   -0.839223   -0.133065
C        -1.025700   -1.271718   -0.001804
B         3.484898    0.595252    0.000056
H        -1.812304    2.489240    0.069268
H        -3.644358    0.855123   -0.213474
H        -3.130936   -1.561595   -0.260916
H        -0.804605   -2.332020   -0.027886
H         0.511678    1.711993    0.299277
C         1.428199   -0.846618    0.338305
N         2.394310   -0.116664   -0.459711
H         3.689879    0.642283    1.175029
H         4.188339    1.146411   -0.788931
H         1.470309   -1.912208    0.099655
H         1.729325   -0.742810    1.381644
H         2.203111   -0.150793   -1.449920
