8
0 1
C         0.629834    0.359102   -0.000000
B        -1.835801    0.145850   -0.000000
O         1.726881   -0.120527   -0.000000
N        -0.538742   -0.387297    0.000001
H        -2.762257   -0.596162   -0.000002
H        -1.957504    1.328534    0.000003
H         0.440383    1.443249   -0.000005
H        -0.364472   -1.384196    0.000001
