12
0 2
N        -0.540450   -0.541384   -0.000001
C         0.485996    0.455752   -0.000001
C         1.872850   -0.154472    0.000001
H         0.354135    1.112186    0.874525
H         0.354137    1.112183   -0.874530
H         2.013459   -0.780189    0.880949
H         2.640680    0.620091   -0.000000
C        -1.853236    0.022520    0.000001
H        -2.009038    0.662216    0.880042
H        -2.608303   -0.761630   -0.000004
H        -2.009037    0.662228   -0.880032
H         2.013460   -0.780193   -0.880945
