16
0 1
C        -0.468003    0.266419   -0.000007
B        -1.982790    0.636211   -0.000017
N        -2.993035   -0.318136    0.000003
C         0.483839    1.285767   -0.000003
C         1.841445    1.011346    0.000004
C         2.277940   -0.301696    0.000007
C         1.353141   -1.335066    0.000003
C         0.001079   -1.048844   -0.000003
H        -0.700720   -1.875112   -0.000007
H         0.148347    2.315598   -0.000006
H         2.559199    1.821328    0.000006
H         3.337460   -0.522612    0.000012
H         1.690879   -2.363307    0.000005
H        -2.309285    1.786363    0.000014
H        -2.830117   -1.310749    0.000005
H        -3.967216   -0.073163    0.000021
