13
0 1
B         2.041019    0.377040   -0.153598
C        -0.314156   -0.255512    0.530787
C        -1.473501   -0.484043   -0.387441
C        -1.062058    0.910317   -0.014655
H        -0.566993    1.503872   -0.768428
H        -1.688703    1.473070    0.661907
H        -2.386047   -0.887703    0.027501
H        -1.243749   -0.814110   -1.390969
N         1.016080   -0.526249    0.065654
H        -0.476236   -0.489370    1.576829
H         1.849140    1.541258    0.011081
H         3.098016   -0.043190   -0.512096
H         1.195203   -1.509849   -0.069554
