12
0 2
N        -0.540450   -0.541384   -0.000008
C         0.485996    0.455752   -0.000003
C         1.872850   -0.154472    0.000005
H         0.354132    1.112187    0.874522
H         0.354140    1.112181   -0.874533
H         2.013463   -0.780194   -0.880939
H         2.013456   -0.780188    0.880955
C        -1.853236    0.022520    0.000002
H        -2.608303   -0.761630   -0.000005
H        -2.009040    0.662232   -0.880027
H        -2.009035    0.662212    0.880047
H         2.640680    0.620091    0.000005
