19
0 1
C        -0.725004   -0.022550    0.000005
B         1.732015    0.802085   -0.000015
O         2.274335   -0.460635   -0.000015
C        -0.625975   -0.893063    1.252189
H        -0.707099   -0.278023    2.149129
H         0.327450   -1.417072    1.279851
C        -0.625994   -0.893070   -1.252176
H         0.327430   -1.417078   -1.279850
H        -0.707131   -0.278034   -2.149118
H        -1.427894   -1.632812   -1.267753
H        -1.427875   -1.632805    1.267782
C        -2.054676    0.722549    0.000013
H        -2.887859    0.020461    0.000021
H        -2.145272    1.353577   -0.886290
H        -2.145259    1.353581    0.886315
N         0.348116    0.982107   -0.000005
H         3.232351   -0.454388   -0.000021
H         2.441450    1.767483   -0.000022
H         0.018034    1.931825   -0.000006
