15
0 1
B        -1.429679   -1.170037   -0.246331
N        -0.585220   -0.130217    0.094174
C         0.769657   -0.344159    0.586221
C         1.850684    0.049769   -0.407872
H         0.867168   -1.399423    0.832935
H         0.899803    0.220355    1.515540
H         1.740154   -0.513966   -1.334648
H         2.836559   -0.163367    0.006618
C        -0.972769    1.264912   -0.002668
H        -2.011242    1.332861   -0.313638
H        -0.360643    1.804536   -0.728046
H        -0.862267    1.762118    0.965220
H         1.818589    1.112092   -0.648935
H        -2.526507   -0.923996   -0.645826
H        -1.042107   -2.292642   -0.130872
