13
0 2
C        -1.067646   -0.103478    0.000000
B        -2.585740   -0.202448    0.000000
C        -0.436114    1.149219    0.000000
C         0.941556    1.255791   -0.000000
C         1.718388    0.107621   -0.000000
C         1.121552   -1.143964   -0.000000
C        -0.255987   -1.245587    0.000000
H        -0.726642   -2.220102    0.000000
H        -1.043737    2.045164    0.000000
H         1.413432    2.229377   -0.000000
H         2.797829    0.188800   -0.000001
H         1.734109   -2.035654   -0.000000
H        -3.376790    0.687044    0.000001
