17
0 1
C        -1.293396    0.089833   -0.000006
B         1.250966   -0.086770   -0.000019
C         1.550543    1.446486    0.000005
H         1.093216    1.934214   -0.863342
H         2.619701    1.659511    0.000020
H         1.093197    1.934194    0.863352
O        -1.365249    1.292041   -0.000001
C        -2.516157   -0.794809    0.000011
H        -2.521310   -1.437933    0.881560
H        -2.521324   -1.437949   -0.881526
H        -3.405945   -0.173538    0.000013
C         2.411084   -1.145590    0.000005
H         2.091369   -2.189451    0.000009
H         3.055516   -0.989797    0.869800
H         3.055535   -0.989810   -0.869779
N        -0.087169   -0.598060   -0.000012
H        -0.195055   -1.601017   -0.000009
