18
0 1
C         2.049611    1.286388   -0.265526
C         0.717471    0.939705   -0.418091
C         2.988960    0.338450    0.097586
C         2.579688   -0.969480    0.304615
C         1.249639   -1.318456    0.175170
C         0.296123   -0.367090   -0.180754
H         0.934251   -2.337856    0.360041
H         4.029385    0.611084    0.207091
H         3.302800   -1.725814    0.580461
H         2.355412    2.306858   -0.455849
H         0.009402    1.675965   -0.774870
B        -2.210118    0.007976    0.042082
O        -2.192472    1.247356    0.622994
O        -3.416957   -0.584684   -0.205894
H        -4.155435   -0.050998    0.097988
H        -1.318148    1.565001    0.862952
N        -1.046135   -0.734261   -0.308930
H        -1.197654   -1.702767   -0.540512
