15
0 1
C        -0.517989   -0.206427   -0.000000
C        -0.011688    1.086607   -0.000001
C         1.358449    1.259486   -0.000000
N         2.239828    0.265506   -0.000000
C         1.747100   -0.965510    0.000000
C         0.395477   -1.252039   -0.000000
H        -0.666985    1.943576   -0.000001
H         1.769483    2.262913   -0.000000
H         2.469342   -1.774428    0.000000
H         0.057621   -2.280826    0.000000
B        -2.984531    0.379093    0.000003
N        -1.891075   -0.486793   -0.000000
H        -4.069339   -0.108454   -0.000001
H        -2.826987    1.555926    0.000003
H        -2.079848   -1.477864   -0.000003
