13
0 2
C        -0.000000    1.352821    0.000000
C         1.209946    0.665025    0.000000
C         1.220040   -0.705237    0.000000
C        -1.207988    0.657799    0.000000
C        -1.197107   -0.708419    0.000000
C         0.012157   -1.467774    0.000000
F        -0.005166    2.672627    0.000000
F         2.343453    1.353294    0.000000
F         2.375007   -1.339210    0.000000
F        -2.347512    1.336322    0.000000
F        -2.347790   -1.371454    0.000000
N         0.069587   -2.779733    0.000000
H        -0.871330   -3.171382    0.000000
