24
0 1
C        -1.924705    1.172458    0.684603
C        -0.956479    1.361712   -0.478004
C        -2.822916   -0.040524    0.465802
H        -2.528135    2.072031    0.818313
H        -1.362937    1.046818    1.616293
C        -2.002252   -1.299735    0.207260
H        -3.469569    0.146276   -0.397905
H        -3.482667   -0.185804    1.323539
C        -1.031039   -1.100878   -0.951827
H        -2.660040   -2.145896    0.000863
H        -1.449237   -1.566506    1.114415
C        -0.117584    0.108930   -0.743092
H        -1.604086   -0.946702   -1.870991
H        -0.418896   -1.991533   -1.100824
H        -0.290365    2.205690   -0.293506
H        -1.527603    1.594196   -1.382019
B         2.248153   -0.047015    0.177316
O         3.132560   -0.273626    1.212711
O         2.785155    0.271416   -1.044321
H         3.744742    0.290306   -1.016993
H         2.731532   -0.499010    2.053417
N         0.849734   -0.128242    0.318227
H         0.465597    0.266563   -1.648724
H         0.450888   -0.347753    1.214377
