11
0 1
Cl         2.052902   -0.873313    0.153355
Cl         0.411670    1.669694    0.004096
O        -0.547133   -0.848809   -0.392804
C        -1.883546   -0.385390   -0.611983
H        -2.315883   -1.074079   -1.335661
H        -1.854816    0.610616   -1.053013
C        -2.662991   -0.390849    0.679690
H        -2.660821   -1.385085    1.125081
H        -3.696384   -0.099125    0.489704
H        -2.235690    0.312924    1.393776
B         0.504430   -0.091168   -0.112075
