19
0 1
O         0.700968    0.491255    0.658936
B         1.757624   -0.063320    0.011956
O         2.894758    0.672086   -0.182050
C        -0.508269   -0.227975    0.865902
C        -1.483822   -0.050248   -0.285131
C        -2.721037   -0.903267   -0.040451
H        -2.465688   -1.958748    0.064411
H        -3.427039   -0.809941   -0.865960
H        -3.236510   -0.589697    0.870726
C        -1.846685    1.413848   -0.486733
H        -0.984695   -0.416542   -1.187686
H        -2.369172    1.804898    0.390074
H        -2.503825    1.537814   -1.348406
H        -0.958097    2.023044   -0.645976
H        -0.945754    0.160925    1.788260
H        -0.287079   -1.286945    1.009300
O         1.704258   -1.348343   -0.447707
H         2.521089   -1.619952   -0.873903
H         2.827652    1.557615    0.184430
