16
0 1
F        -0.003672   -2.364825   -0.000004
F        -0.085580    2.340485    0.000000
O        -2.492400    1.115440   -0.000004
O        -2.412119   -1.209328    0.000008
B        -1.751980   -0.025721   -0.000004
C         0.601076   -1.175444   -0.000002
C         1.981043   -1.179675    0.000000
C         2.651422    0.028282    0.000002
C         1.946019    1.218463    0.000002
C         0.573068    1.152806    0.000000
C        -0.174924   -0.018259   -0.000002
H         2.503848   -2.124915    0.000000
H         3.732552    0.044295    0.000004
H         2.436462    2.180598    0.000004
H        -1.973108    1.924028   -0.000005
H        -3.366660   -1.082278    0.000010
