15
0 1
B        -1.631305   -0.047285   -0.035481
O        -0.570164   -0.630452    0.529612
F        -1.762697    1.271083   -0.132064
F        -2.608200   -0.797412   -0.513364
C         0.546759    0.124250    1.015978
C         1.665874    0.113460    0.018784
C         2.136309    1.250455   -0.468977
C         2.199479   -1.233025   -0.356607
H         2.958646    1.266343   -1.172558
H         1.717096    2.205812   -0.180771
H         2.993441   -1.152888   -1.096484
H         2.595205   -1.749111    0.521702
H         1.406462   -1.862846   -0.761731
H         0.853611   -0.365712    1.941346
H         0.240922    1.144563    1.242782
