15
0 1
O        -0.559614    0.516786    0.555385
B        -1.697874   -0.069300    0.011245
O        -1.722214   -1.322889   -0.502101
O        -2.791796    0.727029    0.038881
O         0.525705   -0.397635    0.509219
C         1.648179    0.192952   -0.022481
C         1.711504    1.429692   -0.479814
C         2.755047   -0.804045    0.023531
H         3.661375   -0.368212   -0.388087
H         2.501761   -1.694771   -0.553621
H         2.947018   -1.116185    1.050693
H         0.863066    2.092460   -0.461368
H         2.648700    1.790988   -0.872982
H        -3.569979    0.305213   -0.334494
H        -0.867593   -1.760916   -0.434870
