9
0 1
N         1.288789   -0.073614   -0.000002
O         0.080466   -0.731216    0.000009
B        -1.173724   -0.055862    0.000017
O         1.287202    1.135551   -0.000020
O         2.225689   -0.798611   -0.000003
O        -1.349408    1.274534    0.000005
O        -2.191734   -0.936780    0.000001
H        -3.055893   -0.514917   -0.000010
H        -0.514727    1.761686    0.000004
