19
0 1
O        -0.767785   -0.988776   -0.024296
B        -1.602327    0.079743   -0.011888
O        -2.686906    0.078922    0.822595
C         0.391490   -1.060001   -0.847728
C         1.644901   -1.099699    0.002657
H         0.405917   -0.216836   -1.538490
C         1.884407    0.151039    0.841136
H         2.495884   -1.262008   -0.666322
H         1.586956   -1.972931    0.656646
C         2.133947    1.409332    0.021484
H         2.741223   -0.031808    1.493528
H         1.030374    0.306329    1.504846
H         2.978112    1.272734   -0.658110
H         2.365232    2.255811    0.668856
H         1.262701    1.681834   -0.573760
H         0.312159   -1.976425   -1.434378
H        -2.750096   -0.726694    1.342225
O        -1.382059    1.162913   -0.815469
H        -2.051293    1.842772   -0.703541
