16
0 1
F         0.063617    2.107520    0.000012
O         2.520790    0.838095   -0.000021
O         2.348065   -1.492558    0.000021
C        -0.551294   -1.445863   -0.000007
H         0.000104   -2.376322   -0.000011
C        -1.955634    0.940488    0.000003
H        -2.470251    1.890802    0.000008
C        -2.635474   -0.264539   -0.000004
H        -3.717240   -0.267063   -0.000005
C         0.173154   -0.251902   -0.000000
C        -1.933485   -1.459697   -0.000009
H        -2.466144   -2.400736   -0.000015
C        -0.580037    0.908482    0.000004
B         1.740144   -0.275173    0.000001
H         3.307793   -1.422752    0.000018
H         2.018243    1.658154   -0.000037
