16
0 1
Cl         1.548842    1.579207   -0.075769
Cl         2.292660   -1.326220    0.331697
O        -0.065797   -0.553664   -0.623190
N        -2.276760    0.186648   -0.113045
C        -1.209207    0.270039   -1.019072
C        -2.893144   -1.120944   -0.011035
C        -2.039073    0.809751    1.172699
B         1.107628   -0.132351   -0.180695
H        -3.838630   -1.033604    0.524004
H        -2.262997   -1.847508    0.516650
H        -3.100641   -1.507907   -1.008294
H        -1.347361    0.235659    1.804344
H        -2.982945    0.903974    1.709046
H        -1.625762    1.807273    1.029887
H        -1.504137   -0.125859   -1.987976
H        -0.868974    1.298628   -1.113686
