12
0 1
B        -0.626537    0.027154   -0.000009
C         0.723932   -0.797046    0.000001
C         2.008661    0.026939   -0.000000
H         2.072161    0.667877    0.882338
H         2.072166    0.667866   -0.882345
H         2.898011   -0.603228    0.000006
O        -0.671261    1.387191   -0.000002
H         0.193678    1.802296    0.000002
O        -1.845242   -0.584381    0.000004
H        -1.799388   -1.542274    0.000010
H         0.716261   -1.465079   -0.868114
H         0.716258   -1.465070    0.868124
