13
0 2
F        -1.672524   -1.309612    0.002175
N        -1.645993    1.391863   -0.072726
H        -1.620445    2.326096    0.298695
H        -2.462881    0.874910    0.206847
C        -0.465168   -0.702486   -0.004447
C        -0.451801    0.689352   -0.009537
C         0.788424    1.320034   -0.004402
H         0.826692    2.402679   -0.014586
C         1.970767    0.586079    0.005445
H         2.927852    1.089511    0.009548
C         1.858765   -0.773945    0.006474
C         0.680745   -1.469224    0.003156
H         0.613048   -2.548585    0.008871
