13
0 2
B        -2.555479   -0.183491   -0.399135
Cl         2.665547   -0.521573    0.131344
Cl        -0.145155   -1.985808   -0.127569
O        -3.518149   -0.379386    0.493410
H        -4.322314   -0.791357    0.161974
N         1.309381    1.691970    0.058564
C         1.199030    0.387006    0.023678
C        -0.024953   -0.263698   -0.092759
C        -1.189730    0.489818   -0.175341
C        -1.053709    1.878406   -0.138377
H        -1.920997    2.521323   -0.202262
C         0.204573    2.425909   -0.018208
H         0.342292    3.499631    0.020598
