14
0 2
F        -3.155018   -0.469558    0.000002
F         0.568996    2.312534   -0.000003
O         3.268032   -0.937565   -0.000001
C         0.930482   -0.012732   -0.000000
C        -1.307643    0.952467   -0.000001
H        -1.948920    1.821024   -0.000001
C         0.066172    1.072931   -0.000001
C         0.338479   -1.281286    0.000002
H         0.983887   -2.149535    0.000003
C        -1.824970   -0.323728    0.000001
C        -1.030180   -1.453404    0.000002
H        -1.487987   -2.431883    0.000004
B         2.467892    0.139000   -0.000001
H         4.209463   -0.746356   -0.000001
