14
0 2
C        -2.514484    0.000000    0.000001
C        -1.826617   -1.203758    0.000001
C        -0.445039   -1.206530    0.000000
C        -1.826616    1.203758   -0.000000
C        -0.445039    1.206530   -0.000001
C         0.241085   -0.000000   -0.000001
H        -3.596450    0.000000    0.000001
H        -2.369660   -2.138788    0.000002
H         0.110053   -2.135082    0.000001
H        -2.369660    2.138788   -0.000001
H         0.110053    2.135082   -0.000002
C         1.707538   -0.000000   -0.000001
O         2.423169   -1.027046    0.000000
O         2.423169    1.027046    0.000000
