10
0 2
B         0.884544    0.715033   -0.000002
C        -0.681349    0.752775    0.000000
C        -1.367687   -0.616042   -0.000002
H        -1.097576   -1.200272    0.882448
H        -1.097578   -1.200268   -0.882456
H        -2.453431   -0.520508   -0.000001
O         1.664280   -0.367137    0.000002
H         1.208033   -1.222092    0.000007
H        -1.001099    1.342340   -0.864345
H        -1.001097    1.342337    0.864348
