8
0 1
C        -1.129638    0.144505    0.000000
O         0.144170   -0.476546   -0.000000
H        -1.675610   -0.176604    0.886123
H        -1.675608   -0.176599   -0.886126
H        -1.036777    1.231766    0.000003
B         1.288648    0.213708    0.000001
H         2.301609   -0.413972   -0.000002
H         1.267608    1.412208   -0.000001
