7
0 1
F         1.781997   -0.073570    0.000006
O         0.603121   -0.856370   -0.000013
B        -0.495787    0.018675   -0.000020
O        -1.673170   -0.638449    0.000009
H        -2.437342   -0.055729    0.000033
O        -0.385426    1.362654    0.000005
H         0.522112    1.681803    0.000005
