15
0 1
H         3.649799   -0.200358    0.005675
O        -2.501408    1.126312    0.032904
H        -2.027483    1.959092    0.070708
O        -2.348612   -1.199159   -0.036014
H        -3.307761   -1.122203   -0.028254
B        -1.721560    0.005496   -0.001287
N         1.884121   -1.246912    0.021021
C         2.568934   -0.110176    0.003082
C         1.970771    1.137808   -0.018682
H         2.576015    2.033579   -0.034196
C         0.591151    1.200161   -0.020674
H         0.110187    2.172457   -0.040729
C        -0.158847    0.029478   -0.001584
C         0.560360   -1.165840    0.017755
H         0.024135   -2.107471    0.031605
