18
0 2
B        -0.931569   -2.064445   -0.000017
O        -2.246351   -1.856516   -0.000004
H        -2.460417   -0.908245    0.000016
C         0.182642   -0.979703   -0.000004
C        -0.101572    0.395664    0.000004
H        -2.865532    2.136049    0.000003
H        -1.403418    2.609774    0.891965
H        -1.403420    2.609773   -0.891960
O        -1.423337    0.737727    0.000003
C        -1.779628    2.105067    0.000003
C         0.912784    1.339262    0.000009
H         0.694542    2.396003    0.000013
C         2.233902    0.916181    0.000007
H         3.022104    1.657807    0.000012
C         2.547658   -0.428712   -0.000000
H         3.579654   -0.750706   -0.000002
C         1.521182   -1.358083   -0.000008
H         1.750043   -2.415975   -0.000016
