14
0 2
F        -1.286003    2.249656    0.000000
F         2.488253   -1.616098   -0.000001
O        -2.630204   -1.752782   -0.000001
H        -3.576592   -1.918854    0.000005
C        -0.780837   -0.049951    0.000002
C        -0.366716    1.272864   -0.000000
C         0.961968    1.645682   -0.000003
H         1.222445    2.694339   -0.000005
C         1.931919    0.661214   -0.000003
H         2.984377    0.907653   -0.000005
C         1.539689   -0.662602   -0.000001
C         0.216987   -1.030326    0.000001
H        -0.048933   -2.078564    0.000003
B        -2.275593   -0.461124    0.000007
