19
0 1
C        -3.611563    0.497533    0.000006
C        -2.648664    1.493374    0.000005
C        -1.307000    1.159037   -0.000002
C        -3.236185   -0.837231    0.000001
C        -1.897586   -1.175973   -0.000005
C        -0.929901   -0.178271   -0.000007
H        -4.660727    0.762356    0.000011
H        -2.944237    2.533686    0.000012
H        -0.546951    1.926061   -0.000001
H        -3.989838   -1.612873    0.000003
H        -1.581222   -2.209403   -0.000005
C         0.493175   -0.581510   -0.000002
O         1.340165    0.455833   -0.000005
B         2.739368    0.325416    0.000000
O         3.400495    1.505971   -0.000012
O         0.859005   -1.734276    0.000002
H         4.354949    1.391675   -0.000010
O         3.371945   -0.863814    0.000015
H         2.724646   -1.590043    0.000021
