13
0 2
H        -3.250445    0.408311    0.000001
O         2.951492    0.289161   -0.000001
H         3.853505   -0.041759   -0.000001
B         1.994659   -0.648959    0.000001
N        -1.795488   -1.037106    0.000001
C        -2.179953    0.232797    0.000001
C        -1.297304    1.302068   -0.000000
H        -1.672101    2.316448   -0.000001
C         0.055595    1.034223   -0.000001
H         0.779448    1.839476   -0.000001
C         0.491516   -0.291455    0.000000
C        -0.491185   -1.278902   -0.000001
H        -0.199241   -2.323608    0.000001
