7
0 1
Cl         1.705118   -0.053039   -0.000004
O         0.201675   -0.780890    0.000002
B        -0.921199    0.057109    0.000004
O        -0.877721    1.403757   -0.000002
O        -2.116231   -0.576274    0.000006
H        -2.050526   -1.534843    0.000009
H         0.007734    1.778218   -0.000006
