17
0 1
O        -2.459807   -1.830347    0.071256
H        -1.690142   -2.396343    0.155335
O        -3.280515    0.346046   -0.088097
H        -4.123761   -0.117711   -0.078820
N         3.740479   -1.511037   -0.033568
C         1.630673   -0.030943   -0.004013
C         2.804443   -0.850165   -0.020781
C        -0.782662    0.145705    0.002415
C         0.373051   -0.623929   -0.012351
H         0.326199   -1.705819   -0.037370
C         1.747323    1.354623    0.019772
H         2.728236    1.808941    0.026801
C        -0.642267    1.533463    0.022725
H        -1.533585    2.146242    0.030575
C         0.605196    2.131973    0.032906
H         0.690427    3.209908    0.050209
B        -2.214537   -0.491582   -0.004213
