7
0 2
C        -1.383195    0.000037   -0.003099
C         0.099996    0.000012   -0.007644
H        -1.727265   -0.001375    1.031842
H        -1.757126   -0.894761   -0.496811
H        -1.757123    0.896117   -0.494473
O         0.808762   -1.028124    0.001493
O         0.808826    1.028089    0.001493
