16
0 2
O        -0.192491    2.692180    0.000000
N        -0.191133    1.422488    0.000000
C        -0.198031    0.715297    1.199297
C        -0.198031   -0.614682    1.231072
C        -0.160649   -1.468750   -0.000000
C        -0.198031   -0.614682   -1.231072
C        -0.198031    0.715297   -1.199297
C         1.061464   -2.396193   -0.000000
H        -0.208335    1.353825   -2.069119
H        -0.208335    1.353825    2.069119
H        -0.206495   -1.108407    2.193879
H         1.982920   -1.813966   -0.000000
H         1.059853   -3.036338   -0.882987
H        -0.206495   -1.108407   -2.193879
H         1.059853   -3.036338    0.882987
H        -1.047264   -2.116771   -0.000000
