20
0 1
B        -1.905715    0.077705   -0.000000
O        -2.217208    1.400967   -0.000001
H        -1.415207    1.939266   -0.000001
O        -2.924170   -0.829946   -0.000002
H        -3.786122   -0.402754   -0.000002
C        -0.438269   -0.471877   -0.000001
C         0.694671    0.351427   -0.000002
H         1.153755    3.588505    0.000019
H         2.184560    2.448481    0.891736
H         2.184570    2.448498   -0.891709
O         0.467961    1.701338   -0.000003
C         1.569273    2.584592    0.000011
C         1.974479   -0.181361   -0.000002
H         2.844725    0.456307   -0.000004
C         2.139270   -1.557710   -0.000002
H         3.140678   -1.968114   -0.000002
C         1.042913   -2.397359   -0.000001
H         1.174571   -3.470581   -0.000001
C        -0.227430   -1.846728   -0.000001
H        -1.095059   -2.492912   -0.000000
