13
0 1
O         0.595701   -0.464774    0.717144
B         1.640340    0.137481    0.005623
O         2.790045   -0.568965   -0.057458
O         1.551747    1.351418   -0.574872
O        -0.583716    0.319692    0.696662
C        -1.543836   -0.256281   -0.101218
C        -2.821886    0.507917    0.060159
H        -3.458646   -0.038132    0.756488
H        -3.325437    0.553076   -0.901848
H        -2.654520    1.507135    0.453728
O        -1.356082   -1.208358   -0.782735
H         0.713893    1.793205   -0.414761
H         2.735779   -1.444615    0.334708
