14
0 2
F         0.192598    2.250818   -0.000000
O        -2.990105   -0.523149   -0.000001
C        -0.152243   -1.336242    0.000001
H        -0.929706   -2.089023    0.000002
C         1.830534    0.599136   -0.000001
H         2.581505    1.376352   -0.000002
C         2.165355   -0.742446    0.000000
H         3.208321   -1.030452   -0.000000
C        -0.530725    0.011211    0.000000
C         1.175446   -1.714680    0.000001
H         1.443436   -2.762309    0.000001
C         0.495123    0.944018   -0.000001
B        -2.025954    0.409410    0.000002
H        -3.887259   -0.179767    0.000001
