14
0 2
F         0.139740    2.575134    0.000002
F         1.241268   -1.981508   -0.000005
F        -3.211981   -0.638805    0.000001
O         3.336048   -0.140026    0.000003
C         0.796584    0.324882   -0.000001
C        -0.207598    1.289341    0.000000
C        -1.915150   -0.327127    0.000001
C         0.330677   -0.985562   -0.000002
C        -1.556170    1.002808    0.000001
H        -2.297277    1.787305    0.000003
C        -0.992938   -1.354008   -0.000002
H        -1.296220   -2.389704   -0.000003
B         2.306939    0.701956    0.000001
H         3.116747   -1.082565    0.000005
