16
0 1
F         3.558201   -0.152818   -0.000004
F        -0.477612    2.145896   -0.000004
O        -2.873712    0.836204    0.000003
C        -0.563479   -0.212943    0.000004
C         1.541346    1.021280   -0.000004
H         2.064967    1.965520   -0.000008
C         0.162160    0.970836   -0.000001
C         0.188878   -1.391079    0.000006
H        -0.340836   -2.333517    0.000010
C         2.218380   -0.176767   -0.000002
C         1.569612   -1.393825    0.000003
H         2.142230   -2.309761    0.000005
B        -2.121274   -0.298078    0.000008
H        -3.826129    0.714141   -0.000003
O        -2.656991   -1.557880   -0.000003
H        -3.614926   -1.615296   -0.000007
