18
0 2
B         2.547184   -0.142323    0.001839
O         3.051581   -1.400952   -0.097393
H         4.013332   -1.418488   -0.071585
O         3.436249    0.889031    0.108366
H         3.040223    1.756755    0.210326
C         0.992699    0.042620   -0.007433
C         0.394201    1.299419   -0.056133
H         1.002067    2.196748   -0.103349
C         0.159597   -1.076301    0.034668
H         0.607341   -2.060792    0.067888
C        -0.981329    1.439465   -0.059449
C        -1.810599    0.321503   -0.012038
B        -3.351585    0.465176   -0.013374
O        -4.175404   -0.590820    0.032917
H        -5.112676   -0.380442    0.026502
C        -1.214398   -0.941709    0.034817
H        -1.843462   -1.822098    0.070421
H        -1.425250    2.425988   -0.100230
