14
0 2
O        -0.000008    0.265316    1.421246
C         0.000001   -0.024824    0.077039
C        -0.000032    1.374654   -0.577589
H         0.886958    1.933095   -0.285394
H        -0.887048    1.933053   -0.285396
C        -1.265495   -0.787539   -0.310214
H        -1.295195   -0.971933   -1.384709
H        -2.149656   -0.219736   -0.023987
H        -1.294136   -1.749393    0.201873
C         1.265532   -0.787480   -0.310212
H         2.149667   -0.219636   -0.023983
H         1.295244   -0.971872   -1.384707
H         1.294217   -1.749333    0.201874
H        -0.000027    1.244365   -1.659688
