15
0 1
O         0.256461   -0.632893   -0.000005
C        -0.737872    0.299250    0.000003
C        -0.178795    1.541948    0.000008
C         1.224500    1.369988    0.000005
C         1.440711    0.027494   -0.000001
B        -2.200623   -0.222854    0.000002
O        -3.204347    0.687086    0.000008
O        -2.482413   -1.552822   -0.000006
C         2.650482   -0.779848   -0.000007
O         3.761911   -0.317399   -0.000006
H         2.474040   -1.871638   -0.000010
H        -0.726593    2.468866    0.000014
H         1.992173    2.124412    0.000008
H        -4.079136    0.285827    0.000007
H        -1.704438   -2.117955   -0.000011
