18
0 1
B        -2.201556   -0.506508   -0.000001
O        -2.378732   -1.858283    0.000008
O        -3.311323    0.279065   -0.000007
O         2.922028   -1.862527   -0.000004
C        -0.801395    0.194503   -0.000000
C         0.385819   -0.521976   -0.000002
C         1.617522    0.121215   -0.000000
C         1.671097    1.507019    0.000002
C         0.499263    2.243696    0.000003
C        -0.719506    1.590672    0.000001
C         2.867813   -0.660857   -0.000001
H         0.402336   -1.605946   -0.000004
H         2.633540    2.005111    0.000003
H         0.536494    3.324664    0.000004
H        -1.636862    2.164442    0.000002
H         3.795544   -0.055170    0.000001
H        -1.574804   -2.382123    0.000017
H        -4.127921   -0.230115   -0.000005
