20
0 1
O        -2.477672    0.319840   -0.656927
O         1.310823    2.737579    0.462364
O        -2.534023   -1.546770    0.710095
O        -0.891086    2.444688   -0.217425
C         0.684677    0.358302   -0.011359
C         0.298515   -2.024366   -0.103929
C         2.539705   -1.211344   -0.133278
C         2.051652    0.079815   -0.046703
C         1.657018   -2.273401   -0.166614
C        -0.216031   -0.727207   -0.034564
B        -1.777972   -0.642818    0.024784
B         0.309345    1.891103    0.074402
H        -0.380848   -2.869009   -0.137304
H         3.607047   -1.386044   -0.172021
H         2.746118    0.907401   -0.004202
H         2.020746   -3.290083   -0.238026
H        -3.429698    0.247836   -0.526636
H        -2.024949   -2.175094    1.227885
H        -1.568882    1.816554   -0.512413
H         1.016047    3.653514    0.460601
