16
0 2
C         1.351423   -0.000000    0.000007
C         0.691509    1.213167    0.000006
C        -0.688930    1.208100    0.000004
C         0.691509   -1.213167    0.000006
C        -0.688930   -1.208100    0.000004
C        -1.371196   -0.000000    0.000004
H         1.258757    2.130727    0.000006
H        -1.242937    2.136724    0.000003
H         1.258757   -2.130727    0.000007
H        -1.242937   -2.136724    0.000004
C        -2.843475   -0.000001    0.000002
O        -3.552366    1.028886   -0.000007
O        -3.552366   -1.028885   -0.000006
N         2.827745    0.000000    0.000009
O         3.385034    1.074580   -0.000011
O         3.385034   -1.074580   -0.000012
