8
0 2
O        -1.856041   -0.154007    0.000025
O        -0.676428   -0.717317    0.000011
C         0.405305    0.224970   -0.000017
C         1.681201   -0.542392    0.000003
H         2.515665    0.151265   -0.000064
H         1.724512   -1.185239   -0.878885
H         1.724553   -1.185111    0.878982
O         0.221998    1.386776   -0.000028
