12
0 2
O        -3.025574   -0.147078    0.110096
H        -2.840591   -1.019646    0.486124
B        -1.991809    0.638139   -0.181302
N         1.278653   -1.323819   -0.025159
C         2.116800   -0.299426    0.062704
H         3.172337   -0.539089    0.127901
N         1.795282    0.986655    0.073938
C         0.503649    1.268555   -0.009476
H         0.234235    2.319308   -0.015811
C        -0.484587    0.290357   -0.083151
C        -0.007808   -1.018224   -0.093291
H        -0.688216   -1.862065   -0.174647
