16
0 2
C         0.138350   -0.239441    0.000002
C        -0.823696   -1.259548    0.000001
C        -2.172810   -0.969869   -0.000006
C        -2.599982    0.349796   -0.000011
C        -1.664998    1.373011   -0.000010
C        -0.313355    1.084822   -0.000004
H        -2.896468   -1.774287   -0.000006
H        -3.657115    0.579513   -0.000017
H        -1.992817    2.404408   -0.000015
H         0.395987    1.900214   -0.000003
H        -0.496328   -2.292391    0.000005
P         1.856251   -0.759942    0.000011
C         2.757090    0.840785    0.000004
H         2.526874    1.436521    0.884960
H         2.526890    1.436506   -0.884966
H         3.825628    0.631309    0.000016
