10
0 2
O         0.445071   -1.067644   -0.000000
C         1.748242   -0.728670   -0.000006
C        -0.287807    0.091560    0.000000
C         1.896383    0.619340    0.000000
C         0.588711    1.154090   -0.000000
H         2.827808    1.158736    0.000001
H         2.451364   -1.543236   -0.000008
H         0.306468    2.193328    0.000001
P        -2.044701    0.082893    0.000003
H        -2.148870   -1.328986    0.000001
