16
0 1
C        -1.774991    1.293029   -0.097498
C        -0.411692    1.120686   -0.250063
C         0.155020   -0.145482   -0.143336
C        -2.593973    0.202632    0.147193
C        -2.038582   -1.061480    0.240867
C        -0.672667   -1.235793    0.097525
H        -2.200930    2.284520   -0.176252
H         0.217051    1.978717   -0.451602
H        -0.249792   -2.228789    0.181112
H        -3.660955    0.338284    0.261507
H        -2.669953   -1.919353    0.431057
B         2.948910    0.686665    0.727134
P         1.936932   -0.355313   -0.386169
H         2.566732    1.768676    1.034920
H         4.055565    0.334144    0.977404
H         2.165060   -1.701387   -0.069396
