9
0 2
B         0.000000    0.567250    0.000000
C        -1.392839   -0.097811   -0.011336
H        -1.655266   -0.246184    1.045407
H        -1.395626   -1.090834   -0.474935
H        -2.189404    0.505760   -0.444350
C         1.392840   -0.097810    0.011336
H         1.655250   -0.246203   -1.045408
H         1.395626   -1.090827    0.474949
H         2.189413    0.505763    0.444331
