16
0 2
C         0.062408    0.036303    0.470704
C        -0.648302    1.208193    0.241954
C        -1.967766    1.167191   -0.172783
C        -2.598365   -0.050063   -0.368784
C        -1.899288   -1.224198   -0.144958
C        -0.579931   -1.180009    0.269891
H        -2.506784    2.090339   -0.340681
H        -3.630230   -0.083349   -0.691596
H        -2.383850   -2.180372   -0.292576
H        -0.039077   -2.102484    0.442699
H        -0.161535    2.163993    0.393649
C         1.503774    0.079368    0.888205
P         2.658973   -0.094546   -0.555920
H         1.727853   -0.732693    1.580175
H         1.725021    1.015775    1.403398
H         2.148826    1.026272   -1.261637
