14
0 1
P         0.761572   -0.019385   -0.613520
B        -1.084169    0.005569   -0.061629
O        -1.731041   -1.180767    0.080010
O        -1.807524    1.149395    0.130449
C         1.387370   -1.451395    0.363729
H         1.226302   -1.338382    1.435774
H         2.452818   -1.582682    0.177623
C         1.437510    1.408813    0.348854
H         2.520895    1.432916    0.234465
H         1.203170    1.367593    1.413077
H         1.060929    2.347171   -0.061515
H         0.871860   -2.350530    0.030344
H        -2.665377   -1.072870    0.291174
H        -1.314093    1.966185    0.030831
