12
0 2
C        -1.586372    1.161726    0.000001
C        -2.213142   -0.070602    0.000002
C        -1.422082   -1.211709    0.000001
N        -0.101157   -1.188343    0.000000
C         0.515478    0.004675   -0.000000
C        -0.207026    1.202695    0.000000
H        -3.290831   -0.155099    0.000003
H        -1.881860   -2.194099    0.000002
H         0.319458    2.147899   -0.000000
H        -2.163689    2.076862    0.000002
P         2.314236    0.082819   -0.000001
H         2.490343   -1.320152   -0.000002
