8
0 2
C        -0.431487    0.218822    0.000009
O        -0.769181    1.375690   -0.000002
C        -1.427167   -0.911491   -0.000002
H        -1.275967   -1.542926    0.877502
H        -1.275949   -1.542925   -0.877505
H        -2.438462   -0.511995   -0.000012
P         1.365017   -0.286936    0.000000
H         1.820489    1.052381   -0.000015
