7
0 1
B        -1.670854    0.901705    0.070398
C         1.082271    0.027012    0.020996
N         2.166658    0.398750    0.058972
P        -0.568697   -0.589900   -0.140539
H        -1.338361    1.950958   -0.366192
H        -2.758214    0.718599    0.508097
H        -0.678935   -1.282911    1.075404
