23
0 1
C        -0.234362    2.124194    0.204126
B        -0.340947    0.579963   -0.098103
H        -1.170536    2.677803    0.145322
H         0.469886    2.605371   -0.476395
H         0.174747    2.281518    1.207291
P         1.274785   -0.417797   -0.524787
N        -1.559665   -0.107131   -0.093869
C        -2.831576    0.469209    0.296360
H        -2.711864    1.490547    0.638986
H        -3.277772   -0.111340    1.109161
H        -3.536113    0.461007   -0.540868
C        -1.706657   -1.502355   -0.460954
H        -2.533149   -1.617325   -1.167487
H        -0.804380   -1.873490   -0.939760
H        -1.927788   -2.123970    0.412139
C         1.431461   -1.487675    0.980040
H         1.381776   -0.917120    1.908546
H         2.387313   -2.010704    0.947518
H         0.644768   -2.239925    0.994923
C         2.618964    0.793380   -0.167264
H         3.577750    0.277108   -0.216710
H         2.629804    1.571825   -0.929018
H         2.529203    1.265238    0.811903
