8
0 2
C         1.400822   -0.940191   -0.000015
C         0.432961    0.212340   -0.000013
H         2.420176   -0.560045   -0.000050
H         1.237129   -1.567329   -0.877662
H         1.237175   -1.567291    0.877667
O         0.800778    1.362532   -0.000036
P        -1.398727   -0.088733    0.000037
H        -1.322501   -1.507494   -0.000051
