15
0 2
C         1.932768   -1.398443   -0.121954
C         0.577694   -1.120583   -0.139650
C         0.130115    0.188847   -0.024428
C        -1.316360    0.536199   -0.066517
O        -1.690106    1.679726   -0.201829
C         2.846273   -0.368129    0.021869
C         2.405583    0.942056    0.137950
C         1.053956    1.220812    0.108423
H         0.688707    2.235288    0.186899
H         2.275996   -2.419369   -0.219798
H        -0.132271   -1.928324   -0.257541
H         3.906037   -0.585462    0.041717
H         3.120802    1.745959    0.248828
P        -2.671737   -0.731881    0.069737
H        -2.042526   -1.512236    1.074317
