17
0 1
P         0.316876    0.584009   -0.838793
B        -1.262718   -0.206276   -0.070869
O        -1.623303   -1.511332   -0.266668
O        -2.112339    0.579602    0.640651
C         1.598251   -0.696228   -0.430775
C         1.726630   -1.141914    1.019142
H         2.551294   -0.300717   -0.788889
H         1.391690   -1.554747   -1.076357
H         0.796296   -1.577292    1.386715
H         1.980050   -0.306550    1.670971
C         0.666305    1.934268    0.365011
H         1.616539    2.405640    0.114595
H         0.690759    1.606977    1.402561
H        -0.116449    2.684484    0.265873
H         2.511586   -1.892205    1.130818
H        -1.011224   -2.030670   -0.792374
H        -2.912080    0.113409    0.910197
