9
0 2
B         0.000000    0.567258    0.000000
C         1.392834   -0.097812    0.011337
C        -1.392834   -0.097812   -0.011337
H        -1.395599   -1.090848   -0.474909
H        -1.655256   -0.246160    1.045411
H        -2.189411    0.505733   -0.444364
H         1.655257   -0.246157   -1.045411
H         1.395599   -1.090849    0.474907
H         2.189410    0.505732    0.444366
