18
0 1
C         2.372141    1.076681    0.608800
C         1.100946    0.657148    0.967108
C         3.083791    0.387020   -0.356834
C         2.514286   -0.720485   -0.964204
C         1.237523   -1.127559   -0.620116
C         0.509187   -0.443254    0.349236
H         0.799821   -1.985096   -1.114226
H         4.079833    0.706777   -0.631767
H         3.065388   -1.267649   -1.717808
H         2.811508    1.935970    1.098117
H         0.567552    1.183729    1.750215
B        -2.196894    0.328532   -0.234895
O        -3.501905    0.041561   -0.465892
O        -1.678402    1.489164   -0.715672
H        -0.731741    1.590347   -0.568524
H        -3.946296    0.717357   -0.990197
P        -1.184464   -0.914285    0.858638
H        -1.359417   -2.032915    0.017661
