17
0 1
C        -2.752236    0.022244    0.852711
C        -2.178438    0.558472   -0.450089
H        -2.304842   -0.936548    1.114751
H        -3.828927   -0.127001    0.773534
H        -2.572926    0.716108    1.676605
C        -0.680070    0.813308   -0.378347
H        -2.673495    1.494891   -0.714141
H        -2.377224   -0.145080   -1.258918
C         0.140981   -0.452275   -0.292421
H        -0.427327    1.465548    0.461089
H        -0.332514    1.333550   -1.276332
O        -0.249384   -1.520976   -0.676420
B         2.724669    1.151343   -0.119089
P         1.814227   -0.321864    0.486888
H         3.906935    1.101278   -0.211954
H         2.143670    2.173848   -0.283006
H         2.443552   -1.488039    0.030730
