11
0 1
P        -0.408727    0.473265    0.682740
B         1.263582   -0.284475    0.056117
O         1.377660   -1.626822   -0.081310
C        -0.526879    1.917633   -0.445986
H        -0.450534    1.645514   -1.496711
H         0.291662    2.592723   -0.192282
Cl        -1.764764   -0.824483   -0.210875
H        -1.469541    2.433374   -0.273639
H         2.239928   -1.969149   -0.335131
O         2.275074    0.611533   -0.121937
H         3.141862    0.253658   -0.337153
