16
0 1
C        -0.532233   -0.332177    0.381164
B         2.229630    0.265133   -0.265013
F         3.404798   -0.192420   -0.656442
F         1.889208    1.467897   -0.684531
C        -1.124782    0.863207    0.774035
C        -1.257482   -1.212112   -0.414439
C        -2.406552    1.181552    0.362000
C        -3.121945    0.299483   -0.429885
C        -2.545852   -0.899868   -0.812367
H        -3.098787   -1.595378   -1.429795
H        -0.813864   -2.147498   -0.729870
H        -2.850735    2.119136    0.668722
H        -4.127012    0.544783   -0.745682
H        -0.581026    1.552723    1.407624
P         1.151243   -0.713511    0.978380
H         1.341655   -1.976551    0.384069
