15
0 1
C        -0.449097    1.126037   -0.271164
C        -1.813639    1.239381   -0.098439
C        -2.547487    0.095681    0.168292
N        -1.997651   -1.106598    0.270559
C        -0.685519   -1.205603    0.114596
C         0.146365   -0.123586   -0.154573
H        -2.306333    2.198638   -0.176456
H        -3.621788    0.147860    0.302982
H         0.148524    2.001304   -0.493245
B         2.911722    0.676879    0.766162
H        -0.269250   -2.202804    0.212196
P         1.926670   -0.330613   -0.409449
H         4.015167    0.324852    1.028676
H         2.511850    1.743354    1.104575
H         2.142991   -1.683675   -0.113995
