15
0 1
C        -1.788356    1.278081   -0.087285
C        -2.564384    0.153671    0.138760
C        -1.930144   -1.071992    0.214845
N        -0.617226   -1.224212    0.088500
C         0.123965   -0.141703   -0.119574
C        -0.423647    1.133031   -0.224826
H        -3.637204    0.222521    0.250314
H        -2.499856   -1.978386    0.385735
H         0.211536    1.989182   -0.405573
H        -2.243163    2.257436   -0.157746
B         2.938427    0.751609    0.607682
P         1.906640   -0.423847   -0.339230
H         2.578048    1.874175    0.757073
H         4.036335    0.419327    0.915579
H         2.078556   -1.721645    0.153640
