21
0 1
C        -2.445624   -1.484133    0.298918
C        -1.164187   -1.495725   -0.219188
C        -3.061867   -0.275858    0.572474
C        -2.392347    0.905925    0.314730
C        -1.107993    0.913398   -0.217793
C        -0.478406   -0.312203   -0.482135
H        -2.958275   -2.416982    0.492203
H        -0.683236   -2.443556   -0.423092
B         2.244736   -0.110193    0.435379
O         3.581910   -0.320609    0.360745
O         1.702005    0.277670    1.620526
H        -2.878238    1.851760    0.520035
H        -4.063030   -0.252426    0.981684
C        -0.429013    2.222951   -0.506833
H        -1.113232    3.054877   -0.350805
H        -0.071126    2.260918   -1.536738
H         0.439169    2.385222    0.135509
H         0.739714    0.321862    1.613119
H         4.027430   -0.201043    1.207134
P         1.210716   -0.319639   -1.196522
H         1.381705   -1.717690   -1.279324
