16
0 1
C        -0.040608    0.370515    0.013932
B         1.415591    0.868776    0.024481
P         2.952538   -0.213227   -0.114653
C        -1.082983    1.304331    0.008386
C        -2.408024    0.908094    0.001224
C        -2.720281   -0.440923   -0.006274
C        -1.708388   -1.389801   -0.004117
C        -0.388360   -0.985566    0.009427
H         0.390795   -1.737153    0.016357
H        -0.839806    2.359203    0.008994
H        -3.197622    1.647783   -0.000767
H        -3.755658   -0.756327   -0.013797
H        -1.954580   -2.443342   -0.010515
H         1.614172    2.044855   -0.011399
H         2.651617   -1.319299    0.703994
H         3.816923    0.458907    0.769056
