19
0 1
C         0.130068    0.059513   -0.098254
C         0.904627    1.215186   -0.187216
C         2.279379    1.148245   -0.080405
C         2.909543   -0.073669    0.103128
C         2.150161   -1.226243    0.179472
C         0.769554   -1.162581    0.078841
B        -2.487033    1.572788    0.499796
H         2.865097    2.055688   -0.145535
H         3.987081   -0.124313    0.182196
H         2.631067   -2.185322    0.320012
H         0.194805   -2.076022    0.145026
H         0.424141    2.172739   -0.339086
P        -1.659400    0.175577   -0.270482
C        -2.395190   -1.467020   -0.005365
H        -2.096594   -1.904131    0.946280
H        -2.130899   -2.149452   -0.811164
H        -3.476187   -1.339082   -0.006463
H        -1.898665    2.591186    0.663856
H        -3.662525    1.500541    0.661922
