15
0 1
B         0.845772    0.074986   -0.024861
C         1.001694    1.631259   -0.119052
H         0.817823    2.033965    0.885385
H         0.277685    2.119688   -0.772437
H         2.005338    1.951094   -0.404187
P        -0.833931   -0.738590   -0.306737
C         2.103230   -0.830085    0.203080
H         2.816056   -0.684874   -0.614993
H         1.905995   -1.897602    0.296635
H         2.627594   -0.499244    1.105777
C        -2.126920    0.428654    0.301631
H        -1.970210    0.752467    1.328477
H        -3.107055   -0.038683    0.223653
H        -2.131416    1.307195   -0.342353
H        -0.829727   -1.719048    0.705442
