15
0 1
B        -1.388489   -1.486398    0.491383
P        -0.622427   -0.124770   -0.408356
C         1.189763   -0.250736   -0.638619
C         2.037710    0.038324    0.593909
H         1.472005    0.413213   -1.458089
H         1.365505   -1.267216   -0.994385
H         1.872269    1.049344    0.966657
H         3.100115   -0.054649    0.362560
C        -1.004012    1.550521    0.211319
H        -2.069848    1.594402    0.428895
H        -0.781012    2.297168   -0.549687
H        -0.455250    1.796623    1.118665
H         1.801820   -0.657079    1.399085
H        -0.916334   -2.574442    0.394866
H        -2.451182   -1.322480    1.000199
