13
0 1
P         0.487053   -0.007028   -0.576765
B        -1.144460   -0.797744   -0.019017
O        -2.233205   -0.015983    0.179525
C         1.733078   -0.944656    0.408889
H         1.672694   -2.000511    0.146457
H         1.591834   -0.842984    1.485013
C         0.466007    1.642262    0.241974
H         0.401774    1.572025    1.327843
H        -0.397108    2.199414   -0.119538
H         1.363229    2.200236   -0.023315
H         2.734027   -0.597632    0.155360
H        -3.040003   -0.503369    0.367600
H        -1.238804   -1.990813    0.065760
