12
0 2
C         0.540255    0.000817    0.000002
C        -0.195796   -1.187654   -0.000003
C        -1.576003   -1.131906   -0.000006
N        -2.264202    0.004201   -0.000007
C        -1.571216    1.138067   -0.000003
C        -0.190994    1.191216    0.000002
H         0.305533   -2.147027   -0.000003
H        -2.158682   -2.046248   -0.000010
H        -2.151090    2.054325   -0.000003
H         0.311386    2.148836    0.000005
P         2.330320   -0.093946    0.000007
H         2.549989    1.306657    0.000010
