7
0 1
P        -0.252165   -0.114758    0.863719
B         0.614994    1.546093    0.284814
Cl         0.955205   -1.435239   -0.203069
Cl        -1.849890    0.158503   -0.423749
O         1.720277    1.556281   -0.456067
H         2.031866    0.673334   -0.708085
H         0.123058    2.571811    0.632661
