15
0 2
B         2.010267   -0.473129   -0.391619
C         0.502624   -0.231998   -0.199867
C        -0.401013   -1.287875   -0.056661
C        -0.008420    1.070379   -0.182167
C        -1.362031    1.306316   -0.020543
C        -2.236632    0.244367    0.140445
C        -1.751355   -1.053812    0.126230
H        -3.295188    0.427327    0.270441
H        -2.431799   -1.886728    0.246762
H        -0.035881   -2.306687   -0.090695
H         0.664704    1.910503   -0.304883
H        -1.736413    2.321886   -0.015972
N         3.054670    0.127095    0.272498
H         2.919610    0.766002    1.045491
H         4.021900   -0.040583    0.054835
