18
0 1
C        -2.702296    0.711034    0.450827
C        -1.401326    1.164073    0.363614
C        -0.400061    0.322848   -0.110792
C         0.984249    0.856811   -0.186312
O         1.222130    2.037259   -0.180110
B         2.449772   -1.445536    1.137399
C        -3.014369   -0.581116    0.054606
C        -2.023556   -1.418979   -0.427933
C        -0.717406   -0.970144   -0.506359
H         0.050850   -1.623541   -0.896523
H        -3.478022    1.364816    0.826078
H        -1.137006    2.169971    0.658611
H        -4.034979   -0.934344    0.119983
H        -2.268283   -2.423427   -0.745369
P         2.404318   -0.333536   -0.328921
H         1.445121   -1.917189    1.556370
H         3.507462   -1.777466    1.562941
H         3.472783    0.566674   -0.220302
