9
0 2
C        -1.905791    0.153921    0.000005
N        -0.627730   -0.378940    0.000007
C         0.527690    0.385372    0.000010
O        -2.885044   -0.537859   -0.000004
H        -1.914039    1.249537    0.000004
O         0.503249    1.592256    0.000000
H        -0.569182   -1.385592    0.000003
P         2.169702   -0.472351   -0.000008
H         1.654766   -1.797039    0.000008
