15
0 2
C        -0.591500   -0.209859   -0.000001
B        -3.066565    0.358728    0.000003
C        -0.108637    1.091868   -0.000001
C         1.254221    1.321164   -0.000000
C         2.151894    0.265458    0.000001
C         1.669388   -1.031042    0.000001
C         0.306467   -1.268066    0.000000
H        -0.066635   -2.285454    0.000000
H        -0.800326    1.921554   -0.000002
H         1.618471    2.340021   -0.000001
H         3.216704    0.453104    0.000001
H         2.355664   -1.867402    0.000001
N        -1.980733   -0.490721   -0.000002
H        -3.052217    1.546272    0.000008
H        -2.164694   -1.483823   -0.000006
