15
0 2
C        -0.703818    1.835111    0.004025
C         0.608647    1.406313    0.005320
C        -1.749017    0.928911   -0.003947
C        -1.492976   -0.442748   -0.008966
C        -0.172779   -0.872722   -0.008111
C         0.890976    0.034711   -0.000851
H         0.035804   -1.936886   -0.016669
H        -2.773327    1.280608   -0.011031
H        -0.922515    2.895049    0.009071
H         1.416239    2.124577    0.011636
N        -2.536866   -1.354183   -0.066468
H        -3.427889   -1.026749    0.266005
H        -2.323481   -2.288929    0.237837
P         2.549877   -0.634736    0.002232
H         3.218879    0.615181    0.010129
