14
0 1
C        -1.846653   -0.261074    0.348118
B         1.088928    0.166339   -0.028406
C         0.920044    1.703792   -0.195907
H         1.108591    1.934240   -1.252451
H         1.656805    2.267784    0.378669
H        -0.083472    2.070824    0.017479
C         2.458457   -0.475818    0.362496
H         3.298154    0.050640   -0.096797
H         2.557260   -1.543262    0.167690
H         2.574249   -0.333979    1.444365
O        -2.213904    0.869745    0.182392
P        -0.361837   -0.998849   -0.431265
H        -2.440722   -0.966103    0.965133
H        -0.167809   -2.088472    0.439542
