17
0 1
C         1.509123    0.192666   -0.012807
B        -1.486418    0.045904    0.031829
C        -1.639264    1.592793    0.108459
H        -0.702800    2.133102    0.238935
H        -2.361838    1.899819    0.866918
H        -2.048442    1.920362   -0.856091
O         1.571067    1.389979   -0.124920
C         2.605222   -0.610191    0.637725
H         2.888056   -1.456586    0.010843
H         2.247081   -1.012905    1.586722
H         3.465879    0.030992    0.814930
C        -2.652377   -0.908880    0.450664
H        -3.628284   -0.503095    0.174538
H        -2.647025   -0.950821    1.547051
H        -2.579027   -1.935020    0.091364
P         0.074629   -0.741062   -0.715145
H         0.174290   -1.957606   -0.012064
