8
0 1
C        -0.995891    0.435767   -0.180880
B         1.918181    0.613997    0.256344
O        -2.025227    0.050147    0.291456
P         0.559109   -0.528912   -0.220460
H         2.874401    0.196306    0.819792
H         1.870393    1.738412   -0.123773
H        -0.913502    1.420213   -0.683591
H         0.368326   -1.507011    0.766379
