15
0 1
B         1.570000    0.137623   -0.003756
O         1.429566    1.493355    0.044267
O         2.816885   -0.391996    0.055022
C        -1.256169   -0.022937    0.512792
C        -2.686735   -0.267269    0.134911
C        -1.994091    0.948620   -0.380185
H        -3.435861   -0.139187    0.903152
H        -2.890592   -1.064813   -0.565716
H        -1.733252    0.970086   -1.430186
H        -2.271959    1.908355    0.033463
H         3.504990    0.278998    0.128232
H         0.514644    1.788556    0.018301
P         0.057844   -1.038879   -0.253989
H        -1.094861    0.311545    1.529843
H         0.339588   -1.919825    0.812108
