19
0 2
C        -0.656977    0.000000   -0.374867
C         0.042136    1.258809    0.148040
C         1.527888    1.257753   -0.198270
C         2.219425   -0.000000    0.312845
C         1.527888   -1.257753   -0.198270
C         0.042136   -1.258809    0.148040
H        -0.076504    1.301527    1.235603
H        -0.438044    2.152951   -0.253627
H         2.005120    2.148467    0.215236
H         1.643126    1.317610   -1.285231
H         2.201054    0.000000    1.407651
H         3.270708   -0.000000    0.018802
H         2.005120   -2.148467    0.215236
H         1.643126   -1.317610   -1.285231
H        -0.438044   -2.152951   -0.253627
H        -0.076505   -1.301526    1.235603
P        -2.470067    0.000000   -0.013882
H        -0.579771   -0.000000   -1.468035
H        -2.323359   -0.000000    1.400745
