20
0 1
C        -1.127571    2.261704   -0.617037
C         0.145159    2.003579   -0.140070
C        -2.114279    1.294399   -0.545432
C        -1.788537    0.080962    0.021925
C        -0.530573   -0.191317    0.523759
C         0.465777    0.774998    0.435547
H        -0.351607   -1.148749    0.993348
H        -1.352300    3.223739   -1.056641
H         0.904924    2.769867   -0.217909
B         2.851367   -0.657692   -0.352600
O         2.096217   -1.357507   -1.237644
O         4.201331   -0.724866   -0.433234
H        -3.113838    1.465058   -0.913378
N        -2.823963   -0.962691    0.110505
O        -3.939365   -0.679967   -0.268150
O        -2.495922   -2.042362    0.553135
H         4.510554   -1.287457   -1.152465
H         1.145871   -1.230242   -1.161872
P         2.120101    0.382453    1.115251
H         2.767839    1.589965    0.784616
