15
0 1
B         2.341480    0.387905   -0.306139
P         0.896849   -0.618402    0.189916
C        -0.706088    0.112874   -0.367463
C        -1.852557   -0.866898   -0.136350
H        -1.990015   -1.061919    0.929369
H        -1.673584   -1.821395   -0.629986
C        -1.003584    1.471382    0.256381
H        -2.788372   -0.454270   -0.517431
H        -0.569546    0.241473   -1.444889
H        -1.955582    1.861261   -0.111679
H        -1.076030    1.392268    1.342792
H        -0.224636    2.196620    0.025560
H         3.340469    0.328843    0.334854
H         2.331736    0.949306   -1.355726
H         0.818808   -0.599832    1.593679
