10
0 2
C         0.097694   -0.448286    0.000000
C        -0.961856    0.382487   -0.000001
C        -2.386088   -0.050038   -0.000001
H        -0.781962    1.453693   -0.000001
H        -2.477494   -1.135424   -0.000002
H        -2.910480    0.340757   -0.875804
H        -2.910481    0.340756    0.875802
P         1.805597   -0.012085    0.000001
H        -0.103221   -1.517295   -0.000000
H         1.601173    1.393816    0.000001
