17
0 1
C         2.721141    0.344436    0.213641
C         1.935018    1.106130   -0.631867
C         0.631897    0.720090   -0.904878
C         2.195150   -0.802015    0.788157
C         0.889022   -1.177202    0.531336
C         0.086227   -0.420793   -0.318726
H         3.741111    0.638391    0.421203
H         2.338634    1.997099   -1.094485
H         0.038711    1.303215   -1.600135
H         2.804947   -1.405018    1.448075
H         0.487406   -2.066438    0.999388
P        -1.652888   -0.831605   -0.694647
B        -2.560223    0.356231    0.519325
O        -2.000624    1.484042    0.990780
H        -1.070274    1.596146    0.752664
H        -3.691868    0.134458    0.823890
H        -1.799967   -2.001157    0.080254
