12
0 2
P         1.841340   -0.039165   -0.076486
C        -2.376774    0.069554    0.010511
C         0.107190    0.570052    0.083893
C        -0.969019   -0.500537   -0.081449
H        -0.030078    1.355494   -0.663052
H         0.000391    1.051068    1.061327
H        -0.830604   -1.268010    0.683727
H        -0.838139   -1.002056   -1.043314
H        -2.548900    0.817864   -0.765083
H        -2.543162    0.549857    0.976426
H        -3.128447   -0.711566   -0.107632
H         1.730447   -1.039592    0.927157
