9
0 2
P         0.000000   -0.000000   -0.700830
C        -0.000000    1.392347    0.500215
H         0.000000    2.343264   -0.030323
H         0.882739    1.354954    1.142627
H        -0.882739    1.354954    1.142627
C         0.000000   -1.392347    0.500215
H         0.000000   -2.343264   -0.030323
H        -0.882739   -1.354954    1.142627
H         0.882739   -1.354954    1.142627
