7
0 2
P         1.141658    0.025118    0.000005
C        -0.542828   -0.505039   -0.000003
C        -1.639816    0.270615   -0.000008
H        -0.683140   -1.582437   -0.000003
H        -1.567962    1.351077   -0.000008
H        -2.635238   -0.155677   -0.000013
H         0.857331    1.416808    0.000004
