22
0 1
C        -2.032266   -1.523954    0.085035
C        -3.330860   -1.115934    0.157348
C        -3.647812    0.256091    0.134373
C        -2.656950    1.187855    0.039720
C        -1.303254    0.795950   -0.036310
C        -0.984160   -0.581917   -0.014202
H        -1.786097   -2.578281    0.102472
H        -4.125338   -1.846379    0.232847
H        -4.682347    0.566874    0.192504
H        -2.895642    2.243897    0.021774
C         0.370857   -0.974797   -0.087389
C         1.373835   -0.051106   -0.178796
C        -0.249013    1.732538   -0.137034
C         1.046321    1.326436   -0.212518
H        -0.489357    2.788155   -0.158092
H         1.837157    2.060504   -0.296227
B         4.218460    0.285738    0.853534
H         0.599083   -2.033698   -0.062579
P         3.105952   -0.544757   -0.336642
H         4.009591    1.409539    1.177131
H         5.236567   -0.254355    1.141697
H         3.094621   -1.920557   -0.070924
