8
0 2
C        -0.432960    0.212340   -0.000009
O        -0.800777    1.362532   -0.000023
C        -1.400823   -0.940190   -0.000012
H        -1.237172   -1.567296    0.877665
H        -1.237135   -1.567322   -0.877664
H        -2.420177   -0.560043   -0.000039
P         1.398727   -0.088733    0.000023
H         1.322502   -1.507494    0.000005
