8
0 2
P         0.691808   -0.852551   -0.000057
N        -0.865014    0.126867    0.000019
O        -0.849718    1.338993    0.000091
O        -1.868466   -0.560922   -0.000014
C         1.854129    0.536543    0.000007
H         1.716564    1.163983    0.881300
H         1.716540    1.164084   -0.881210
H         2.865579    0.128306   -0.000030
