10
0 1
B         0.499745    0.000000    0.010685
P        -1.440198    0.000000   -0.119699
N         1.188945    1.229469    0.007762
N         1.188945   -1.229469    0.007761
H         0.723306   -2.117637    0.015550
H         2.191586   -1.302929   -0.008222
H         0.723307    2.117637    0.015550
H         2.191586    1.302929   -0.008222
H        -1.685384    1.036869    0.809374
H        -1.685384   -1.036870    0.809372
