12
0 2
C        -0.210647    1.205777   -0.000001
C        -1.587019    1.143015   -0.000002
C        -2.194804   -0.102884   -0.000003
N        -1.513062   -1.244039   -0.000001
C        -0.193747   -1.176829    0.000001
C         0.534883    0.021878    0.000001
H        -2.187698    2.042011   -0.000004
H        -3.275343   -0.188977   -0.000004
H         0.294835    2.163820   -0.000001
H         0.333448   -2.124735    0.000001
P         2.320383    0.104540    0.000003
H         2.528444   -1.297688    0.000004
