18
0 1
Cl         4.074444   -0.641645    0.196700
F        -1.877407    1.882425    1.045640
F        -2.199956    1.039002   -0.913173
F        -1.241683    2.961025   -0.707147
S        -2.109523   -1.537502    1.508669
S        -1.402973   -2.449446   -1.321323
N         2.377563    1.318513   -0.027288
C        -1.326369    1.737587   -0.173940
C         2.477666    0.017091    0.077452
C         1.396607   -0.851513    0.092429
H         1.564633   -1.915637    0.171512
C         0.113762   -0.330939    0.008178
C         0.009121    1.059063   -0.100145
C         1.156512    1.829669   -0.118605
H         1.093224    2.905582   -0.215871
B        -1.088103   -1.340323    0.051662
H        -1.548510   -0.568170    2.242033
H        -0.469777   -1.958426   -2.146501
