17
0 1
S         2.949918    0.932674    0.533370
S         1.934908   -1.929526   -0.448939
N        -4.170802   -1.611227    0.452104
C        -2.181338   -0.020175    0.058385
C        -3.285778   -0.904934    0.277345
C         0.208875    0.335393   -0.077275
C        -0.881987   -0.507140    0.122556
H        -0.729478   -1.554858    0.343713
C        -2.413945    1.323230   -0.218082
H        -3.428816    1.691971   -0.269179
C        -0.048938    1.680964   -0.348516
H         0.778183    2.358361   -0.516575
C        -1.341437    2.168436   -0.423299
H        -1.514318    3.213327   -0.641369
B         1.668777   -0.210511    0.000908
H         3.233759   -2.033806   -0.142986
H         4.022481    0.151146    0.359547
