13
0 2
H        -3.628877   -0.833257   -0.102143
S         2.890579   -0.195310   -0.080823
B         1.457201    0.791672    0.151017
N        -1.658190   -1.391910    0.022495
C        -2.609391   -0.466913   -0.051377
C        -2.352419    0.893167   -0.063268
H        -3.167370    1.601229   -0.121124
C        -1.039304    1.312617    0.007856
H        -0.798263    2.367765    0.011844
C        -0.012998    0.369392    0.074535
C        -0.403643   -0.975523    0.079211
H         0.348296   -1.755814    0.139123
H         3.824807    0.733614    0.171183
