18
0 1
C        -2.589182   -0.511793   -0.135066
C        -1.258620    0.213256   -0.118956
S         0.123621   -0.929139   -0.222132
O        -1.167788    1.404321   -0.018336
B         1.697482   -0.025608   -0.024330
S         1.953231    1.724530    0.207718
C        -3.614276    0.274061   -0.939848
H        -3.759856    1.264141   -0.510907
H        -4.569716   -0.250174   -0.935294
H        -3.298280    0.397822   -1.975513
C        -3.035972   -0.715066    1.314660
H        -2.433171   -1.491258   -0.591169
H        -3.184236    0.247927    1.803704
H        -2.301848   -1.282839    1.885863
H        -3.979315   -1.259952    1.336587
S         3.181750   -1.053132   -0.072574
H         2.576850   -2.238243   -0.232922
H         0.655141    2.067176    0.155069
