16
0 1
C        -1.846795    0.108764   -0.163249
S        -0.435054   -1.045192    0.040032
B         1.040534   -0.040216   -0.043572
S         2.654945   -0.826463    0.148146
S         0.968683    1.742645   -0.331161
C        -3.015598   -0.685495   -0.722830
H        -3.309408   -1.481473   -0.036561
H        -2.768507   -1.137275   -1.682318
C        -2.197375    0.790700    1.147746
H        -1.539437    0.851933   -0.898567
H        -3.031715    1.478799    0.996753
H        -1.357340    1.358205    1.543531
H        -2.494341    0.054082    1.895153
H        -3.875439   -0.028641   -0.861747
H         2.288962    1.969849   -0.345569
H         2.225974   -2.084055    0.324912
