14
0 2
C        -2.828977   -0.337838   -0.000001
C        -1.924935   -1.387694    0.000005
C        -0.567817   -1.125719    0.000011
C        -2.377641    0.973339   -0.000003
C        -1.022016    1.236604    0.000003
C        -0.113294    0.185152    0.000010
H        -3.891402   -0.542494   -0.000006
H        -2.278476   -2.409586    0.000007
H         0.139782   -1.945735    0.000016
H        -3.086454    1.790205   -0.000008
H        -0.645786    2.250160    0.000002
C         1.330474    0.506023    0.000015
S         2.534228   -0.777821   -0.000016
O         1.779992    1.625423    0.000000
