8
0 1
B         1.786949    0.096530   -0.007136
S         0.459992   -1.157233    0.011558
F         1.574594    1.382991    0.022879
F         3.012534   -0.369299   -0.021862
S        -1.231297    0.031873   -0.124009
O        -2.328730   -0.852348   -0.039805
O        -1.105372    1.014773   -1.129037
F        -1.156132    0.788941    1.241830
