11
0 2
Cl         2.174047   -0.000000   -0.000002
C        -2.250699    0.000000    0.000002
C        -1.627628   -1.215404    0.000002
H        -2.173752   -2.149098    0.000003
C        -0.236558   -1.209559    0.000001
H         0.319515   -2.136568    0.000001
C         0.437347   -0.000000   -0.000000
C        -0.236558    1.209559   -0.000000
H         0.319516    2.136568   -0.000001
C        -1.627627    1.215404    0.000001
H        -2.173752    2.149098    0.000002
