16
0 1
F         4.095902   -0.239014    0.090067
F         0.155435    2.123917   -0.595457
S        -2.646024    1.212464    0.520644
C        -0.029941   -0.144730    0.035055
C         2.128401    0.965163   -0.259188
H         2.687422    1.854511   -0.508850
C         0.751060    0.965169   -0.262849
C         0.679853   -1.309315    0.352955
H         0.124883   -2.204632    0.597805
C         2.758685   -0.213126    0.072498
C         2.059144   -1.359515    0.383681
H         2.591864   -2.263491    0.640016
B        -1.588325   -0.153107    0.036951
S        -2.382473   -1.697720   -0.452131
H        -1.698356    2.111168    0.808563
H        -3.653495   -1.353924   -0.202896
