16
0 2
S         0.165081    2.675478   -0.000000
N         0.168925    1.024487   -0.000000
C         0.175598    0.296176    1.194429
C         0.175598   -1.031032    1.225479
C         0.140044   -1.890565    0.000000
C         0.175598   -1.031032   -1.225479
C         0.175598    0.296176   -1.194429
C        -1.080678   -2.818681    0.000000
H         0.185132    0.912046   -2.080266
H         0.185132    0.912046    2.080266
H         0.183838   -1.519022    2.191408
H        -1.078873   -3.459001   -0.882970
H        -2.002591   -2.237069    0.000000
H         0.183838   -1.519022   -2.191408
H        -1.078873   -3.459001    0.882970
H         1.028087   -2.536272    0.000000
