21
0 1
C        -3.478788   -0.081478    0.000003
C        -3.012911    1.218435   -0.000037
C        -1.649846    1.427170   -0.000030
C        -2.633083   -1.171020    0.000049
C        -1.269678   -0.949518    0.000054
C        -0.771564    0.347980    0.000014
H        -3.713665    2.038725   -0.000074
H        -1.245160    2.428408   -0.000059
H        -3.044284   -2.168310    0.000081
H        -0.600172   -1.796311    0.000091
C         0.690810    0.668549    0.000019
S         1.761758   -0.761230   -0.000035
B         3.507169   -0.206931   -0.000010
S         4.613016   -1.632869   -0.000062
O         1.071888    1.808729    0.000048
N        -4.934621   -0.314243   -0.000005
O        -5.316899   -1.463383    0.000038
O        -5.655625    0.658667   -0.000054
S         4.175312    1.443388    0.000055
H         5.762677   -0.943690   -0.000039
H         3.001183    2.094081    0.000072
