15
0 1
S        -0.185624   -1.221305   -0.309650
B        -1.509400    0.000354   -0.076576
S        -1.423583    1.747691   -0.444774
S        -3.065992   -0.631575    0.579968
S         1.458737   -0.213796   -1.038715
C         2.460555    0.068134    0.403533
C         3.744459   -0.242908    0.304190
C         1.838601    0.729539    1.588143
H         2.575043    0.855494    2.380108
H         1.014060    0.132388    1.977846
H         1.431700    1.706184    1.324297
H         4.144003   -0.745580   -0.565359
H         4.435494    0.014182    1.096924
H        -2.685401   -1.909142    0.726853
H        -0.166195    1.719885   -0.922233
