15
0 2
S        -3.232665   -0.832433   -0.265458
N         3.294490   -2.158065   -0.009510
C         1.602953   -0.213064    0.019488
C         2.542441   -1.293795    0.003294
C        -0.675495    0.566333    0.258938
C         0.255657   -0.474858    0.228708
H        -0.064613   -1.498284    0.370297
C         2.043671    1.090963   -0.186616
H         3.094092    1.281059   -0.355653
C        -0.208002    1.872404    0.071386
H        -0.907247    2.697310    0.112882
C         1.129350    2.127455   -0.166298
H         1.466402    3.143026   -0.322512
B        -2.150615    0.284214    0.525329
H        -4.317818   -0.671431    0.508833
