14
0 2
S         0.919676   -1.239936   -0.074349
C         0.266364    0.388383    0.355961
C         1.333371    1.419576   -0.011121
H         2.273144    1.225312    0.503063
H         0.985059    2.414659    0.269816
H         1.521271    1.419406   -1.085451
C        -1.069557    0.690741   -0.309498
C        -2.185970   -0.250540    0.108382
H        -0.935311    0.655665   -1.393352
H        -1.344331    1.719807   -0.057531
H        -1.949417   -1.280412   -0.163091
H        -3.125765    0.013524   -0.376223
H        -2.346222   -0.215846    1.187923
H         0.141512    0.397891    1.442099
