16
0 2
C        -0.502786   -0.295198   -0.303884
C         0.368389    0.790409   -0.116125
C         1.728214    0.600807    0.087897
H         2.377160    1.451310    0.243285
C         2.221825   -0.678973    0.079562
C         1.405569   -1.779712   -0.116337
H         1.839333   -2.770039   -0.114359
C         0.053641   -1.585312   -0.298316
H        -0.585602   -2.446509   -0.441374
B        -1.990560   -0.136974   -0.539832
S        -3.474764   -0.581423    0.231691
C        -0.169947    2.164937   -0.141003
H        -1.244260    2.234846   -0.411232
O         0.468938    3.154278    0.094711
F         3.533181   -0.879112    0.268068
H        -3.017172   -1.105937    1.394716
