13
0 2
C        -0.922071    0.232836   -0.375767
C         0.340971   -0.519914   -0.022176
S         1.887867    0.330285   -0.062653
O         0.393206   -1.686922    0.260272
C        -0.961105    1.613632    0.271154
H        -0.990009    1.533149    1.358441
H        -1.852669    2.149282   -0.053285
H        -0.095955    2.219521   -0.000115
C        -2.150989   -0.599770   -0.046889
H        -0.863234    0.369202   -1.461861
H        -2.237825   -0.752326    1.029239
H        -2.103344   -1.579586   -0.516857
H        -3.049332   -0.089125   -0.393222
