16
0 2
C         1.705733   -0.009732   -0.000004
C         0.931728   -1.152577   -0.000012
C        -0.441826   -1.012967   -0.000014
C         1.160794    1.259628   -0.000001
C        -0.213213    1.384855   -0.000002
C        -1.015003    0.250359   -0.000007
H         1.406596   -2.121124   -0.000012
H        -1.066563   -1.896832   -0.000014
H         1.811044    2.120529    0.000004
H        -0.683444    2.357838    0.000002
C        -2.489312    0.438727    0.000003
S        -3.562020   -0.951213   -0.000010
O        -3.024379    1.518035    0.000033
N         3.173571   -0.151116    0.000003
O         3.626514   -1.274336    0.000006
O         3.832401    0.864683    0.000008
