18
0 2
O         2.038148    0.398968    0.002290
O        -0.185090    1.281830    0.019370
C         1.554068   -0.949099   -0.040113
C         0.172530   -1.011779   -0.657073
C        -0.802231   -0.032134   -0.004390
C        -2.063260    0.107900   -0.832057
C        -1.133767   -0.410377    1.429571
B         1.152264    1.412284    0.028319
H         1.559741   -1.344335    0.977081
H         2.267689   -1.525743   -0.626457
H        -0.218412   -2.028123   -0.579803
H         0.246209   -0.770582   -1.719925
H        -2.592082   -0.844281   -0.889783
H        -1.819832    0.433781   -1.842653
H        -2.725078    0.847632   -0.383347
H        -0.236086   -0.482596    2.042500
H        -1.778986    0.348475    1.869749
H        -1.652980   -1.369096    1.462130
