20
0 1
B        -0.000000   -0.000000    2.971541
S         1.496271    0.551313    3.805862
S        -1.496271   -0.551313    3.805862
C        -0.000000   -0.000000    1.414540
C        -0.802520   -0.882283    0.688636
H        -1.437178   -1.585003    1.213325
C         0.802520    0.882283    0.688636
H         1.437178    1.585003    1.213325
C        -0.790600   -0.893270   -0.692256
C         0.000000    0.000000   -1.416249
B         0.000000    0.000000   -2.973152
S         0.000000    1.519776   -3.938518
S        -0.000000   -1.519776   -3.938518
C         0.790600    0.893270   -0.692256
H         1.423513    1.596673   -1.218403
H        -1.423513   -1.596673   -1.218403
H         0.165396   -2.365208   -2.913717
H        -0.165396    2.365208   -2.913717
H         1.064644    0.511978    5.072168
H        -1.064644   -0.511978    5.072168
