14
0 2
F         1.140235    1.798427    0.000003
F        -3.299852   -1.277339    0.000004
S         3.258011   -0.657931   -0.000010
C         0.213555   -0.372775   -0.000003
C         0.050142    1.009264    0.000003
C        -1.178553    1.630715    0.000009
H        -1.231272    2.709997    0.000014
C        -2.321368    0.851484    0.000009
H        -3.306451    1.296307    0.000014
C        -2.189615   -0.521362    0.000003
C        -0.960498   -1.135914   -0.000003
H        -0.904301   -2.215270   -0.000007
B         1.573608   -1.082894   -0.000009
H         3.200397    0.692066   -0.000002
