16
0 1
F        -0.307276   -2.381694   -0.000083
F         3.293245    1.634400    0.000072
S        -1.832436    2.080828   -0.000070
S        -2.701495   -0.964380    0.000089
C         0.078845   -0.052618    0.000000
C         0.561029   -1.356104   -0.000045
C         1.901649   -1.679318   -0.000056
H         2.193909   -2.719537   -0.000094
C         2.838342   -0.665103   -0.000017
H         3.898992   -0.872268   -0.000022
C         2.390043    0.639330    0.000031
C         1.053928    0.952837    0.000039
H         0.776482    1.997810    0.000080
B        -1.440968    0.317066    0.000008
H        -3.166677    1.995991   -0.000017
H        -3.771705   -0.158983    0.000098
