14
0 2
F         0.041314   -2.336585    0.223897
F         0.041302    2.336584    0.223878
S        -2.966794   -0.000003   -0.359702
B        -1.511121   -0.000004    0.582301
C         0.703094   -1.172830    0.099244
C         2.053898   -1.203519   -0.149790
C         2.730575    0.000004   -0.274300
C         2.053892    1.203525   -0.149800
C         0.703088    1.172832    0.099234
C        -0.036567   -0.000001    0.232133
H         2.556141   -2.155234   -0.244372
H         3.793384    0.000006   -0.470749
H         2.556130    2.155242   -0.244390
H        -3.872774    0.000004    0.632940
