17
0 1
C        -3.575410    0.396974    0.000004
C        -2.935290    0.131146    1.198739
C        -1.656684   -0.398042    1.201554
C        -2.935294    0.131088   -1.198721
C        -1.656689   -0.398100   -1.201514
C        -1.013959   -0.657878    0.000025
H        -4.574694    0.811243   -0.000004
H        -3.431722    0.336986    2.137535
H        -1.150393   -0.605004    2.134191
H        -3.431730    0.336883   -2.137524
H        -1.150401   -0.605107   -2.134144
S         0.621273   -1.363473    0.000039
B         1.701820    0.073536   -0.000010
S         3.488617   -0.175835   -0.000021
S         1.026506    1.742582   -0.000048
H         3.486921   -1.516509    0.000034
H         2.200536    2.390338   -0.000088
