11
0 1
S        -0.453014   -1.167749    0.533960
B        -1.723522    0.055386    0.064118
S        -3.275689   -0.646343   -0.520084
S        -1.601141    1.832691    0.141027
S         1.183088   -0.122186    1.185816
C         2.147493    0.003392   -0.350720
F         3.273360    0.651227   -0.043240
F         1.518515    0.688036   -1.304191
F         2.470220   -1.181783   -0.858487
H        -0.344388    1.882489    0.609230
H        -2.933718   -1.939700   -0.423753
