15
0 1
B        -1.693492    0.187605   -0.112733
S        -0.598462   -1.179523    0.256201
F        -1.432873    1.435343    0.236403
F        -2.831214   -0.046145   -0.740326
C         0.819786   -0.307945    1.026627
C         1.779563    0.260048    0.025925
C         1.923293    1.570403   -0.100561
C         2.553906   -0.728415   -0.788918
H         2.619445    1.993325   -0.812982
H         1.346548    2.263583    0.497186
H         3.215635   -0.229024   -1.493589
H         3.159117   -1.370478   -0.143949
H         1.882799   -1.381520   -1.349776
H         1.304080   -1.070458    1.637002
H         0.432731    0.461584    1.687434
