14
0 2
S        -1.975759   -0.006774   -0.087895
C        -0.364709   -0.667236    0.326073
C         0.834617    0.008441   -0.330687
C         0.978840    1.450602    0.131400
H         0.076398    2.024072   -0.081357
H         1.814960    1.939902   -0.368887
H         1.162894    1.493726    1.208105
C         2.100199   -0.791025   -0.044740
H         0.658951    0.008285   -1.410170
H         2.300572   -0.831231    1.028669
H         2.966292   -0.334637   -0.525021
H         2.017242   -1.816631   -0.407936
H        -0.409861   -1.727250    0.053996
H        -0.268978   -0.652540    1.416652
