11
0 1
S        -0.324208   -1.181414   -0.283385
B         0.997145    0.046042   -0.058009
S         2.646956   -0.601250    0.274054
S         0.807444    1.822317   -0.138694
S        -2.074334   -0.136528   -0.540391
C        -2.593151    0.137133    1.166923
H        -3.550470    0.655189    1.114389
H        -1.873891    0.758730    1.694849
H        -2.723899   -0.810203    1.683083
H        -0.491903    1.794723   -0.491254
H         2.319626   -1.901446    0.302094
