10
0 2
B         0.139997   -0.394069   -0.200280
C        -1.129833    0.483083   -0.105286
C        -2.455103   -0.249872    0.107457
H        -2.456368   -0.792377    1.052978
H        -2.631183   -0.976268   -0.685461
H        -3.294596    0.446057    0.122088
S         1.844185   -0.099771    0.029873
H        -1.166220    1.037602   -1.052619
H        -0.990849    1.249204    0.667771
H         1.841887    1.203197    0.405637
