8
0 1
S        -0.672408   -1.132026   -0.020313
B         0.708491    0.048089   -0.003792
S         0.595228    1.830867   -0.004914
S         2.359220   -0.678911    0.014146
S        -2.417655   -0.033399   -0.064497
H         1.982995   -1.966135    0.028821
H        -0.746560    1.886170   -0.061817
H        -2.609047    0.055033    1.261187
