16
0 1
C         1.227580   -0.343257    0.484478
B        -1.822590    0.295290   -0.015696
O        -3.138477   -0.033762   -0.034944
O        -1.496523    1.622125   -0.012289
C         2.220317   -0.061757   -0.353823
C         3.506488    0.603962    0.008790
H         2.119543   -0.340287   -1.400997
H         3.540690    0.857626    1.067834
H         3.650531    1.518005   -0.572040
H         4.354316   -0.046493   -0.218284
H        -3.717460    0.738378   -0.050809
H        -0.549338    1.787546    0.002672
Si        -0.383396   -1.135130   -0.017967
H        -0.212894   -1.688630   -1.384547
H        -0.715925   -2.250434    0.899361
H         1.364721   -0.060931    1.528020
