9
0 2
C        -0.477714    0.206820    0.002023
O        -0.816973    1.367065    0.028521
C        -1.480044   -0.917171   -0.000102
H        -1.326616   -1.557677    0.870593
H        -1.338034   -1.539970   -0.885792
H        -2.490294   -0.512394    0.011057
Si         1.391569   -0.185900   -0.086623
H         1.763728   -1.434282    0.620359
H         2.191584    0.972505    0.356820
