11
0 2
O         0.497476   -1.064587   -0.008671
C         1.798811   -0.717676   -0.003580
C        -0.243640    0.089453    0.011744
C         1.934802    0.627284    0.011739
C         0.614103    1.151239    0.015997
H         2.860115    1.176945    0.023105
H         2.506923   -1.527807   -0.006503
H         0.327820    2.189522    0.028880
Si        -2.075686   -0.023790   -0.088766
H        -2.591212   -1.160356    0.705698
H        -2.648298    1.269652    0.345517
