14
0 1
Si         0.501049   -0.022830    0.423819
B        -1.360875   -0.771694    0.166566
O        -2.341747    0.046966   -0.281216
C         0.640897    1.746455   -0.177831
H        -0.082140    2.388381    0.326463
H         0.442792    1.807935   -1.249143
C         1.770539   -1.110763   -0.433797
H         1.614979   -1.119312   -1.514008
H         1.711098   -2.141057   -0.080665
H         2.783473   -0.751661   -0.246791
H         1.637282    2.151574    0.004203
H        -3.202161   -0.375024   -0.370822
H        -1.642681   -1.918539    0.398289
H         0.792408   -0.054093    1.885671
