13
0 2
Si         1.421266    0.000000   -0.135748
C        -0.398531    0.000000    0.366409
C        -1.122313    1.262242   -0.097584
H        -1.164553    1.312388   -1.187593
H        -0.631177    2.169501    0.256701
C        -1.122313   -1.262242   -0.097584
H        -2.150604    1.275840    0.270913
H        -0.381297    0.000000    1.463692
H        -2.150604   -1.275840    0.270913
H        -1.164553   -1.312388   -1.187593
H        -0.631177   -2.169501    0.256701
H         2.117591    1.213212    0.364648
H         2.117591   -1.213212    0.364648
