14
0 2
C         0.516597   -0.000000   -0.008940
C        -0.202570   -1.197908   -0.007838
C        -0.202570    1.197908   -0.007838
C        -1.585190    1.198905    0.006776
C        -2.279937    0.000000    0.013985
C        -1.585190   -1.198905    0.006776
H        -2.123908   -2.137360    0.014280
H         0.326334   -2.143476   -0.010899
H        -2.123907    2.137361    0.014280
H        -3.361840    0.000000    0.025896
H         0.326334    2.143476   -0.010899
Si         2.366050   -0.000000   -0.079517
H         2.932723   -1.225014    0.531534
H         2.932722    1.225016    0.531530
