23
0 1
C        -0.444882   -1.537671   -0.251860
C        -1.668257   -2.133962   -0.169738
C        -2.824514   -1.359834    0.036764
C        -2.723943   -0.006321    0.154581
C        -1.469896    0.638635    0.074353
C        -0.300467   -0.135868   -0.131984
H         0.432533   -2.148844   -0.417029
H        -1.752625   -3.208274   -0.265241
H        -3.790394   -1.842863    0.100079
H        -3.608116    0.598666    0.312502
C         0.968501    0.512617   -0.214698
C         1.020122    1.877471   -0.086006
C        -1.355716    2.041294    0.198325
C        -0.140347    2.647488    0.120078
H        -2.254416    2.624392    0.356619
H        -0.057774    3.722212    0.213500
H         1.973306    2.387447   -0.148716
B         2.900794   -1.433083    1.268714
Si         2.579573   -0.429757   -0.440802
H         2.500730   -1.338938   -1.610626
H         3.628337    0.579703   -0.715493
H         2.418577   -2.504322    1.464740
H         3.528239   -0.950252    2.158428
