18
0 1
Si         0.428211    0.598116   -0.420756
B        -1.367352   -0.239646    0.026131
O        -2.266853   -0.696479   -0.897553
O        -1.713061   -0.366054    1.335874
C         1.822655   -0.389937    0.360802
C         1.851777   -1.860519   -0.051603
H         1.721383   -0.308781    1.446692
H         2.771867    0.090829    0.108450
H         1.959758   -1.969374   -1.132345
H         0.932084   -2.372453    0.237889
C         0.498440    2.387236    0.135399
H         1.468241    2.832597   -0.090808
H         0.336837    2.457501    1.212006
H        -0.268356    2.987759   -0.355218
H         2.680562   -2.395068    0.414779
H        -1.980319   -0.596523   -1.808096
H        -2.579443   -0.774517    1.456539
H         0.601262    0.552228   -1.904116
