7
0 2
Si        -0.671822   -0.000000   -0.100046
C         1.196345   -0.000000    0.029233
H         1.621247   -0.882469   -0.448527
H         1.507181   -0.000010    1.076452
H         1.621245    0.882480   -0.448509
H        -1.261116   -1.210965    0.522918
H        -1.261115    1.210965    0.522918
