14
0 2
C        -1.680280   -0.000001    0.007920
C        -0.988233   -1.197631    0.002314
C         0.390677   -1.178137   -0.008362
C        -0.988236    1.197630    0.002305
C         0.390674    1.178138   -0.008371
C         1.124556    0.000002   -0.003682
F        -3.003600   -0.000003    0.014981
F        -1.655297   -2.345406    0.005967
F         1.025343   -2.352392   -0.022505
F        -1.655302    2.345403    0.005950
F         1.025337    2.352395   -0.022523
Si         2.988356   -0.000000   -0.064344
H         3.519872    1.228026    0.555600
H         3.519871   -1.228005    0.555643
