11
0 2
Si        -0.052696    0.566611   -0.627595
N        -1.367766   -0.619048   -0.047561
N         1.487258   -0.241653    0.054318
C        -0.262755    2.190978    0.221311
O         2.360904   -0.632729   -0.687529
O        -1.122329   -1.799043    0.053354
O        -2.454316   -0.098840    0.142154
O         1.515234   -0.292246    1.270002
H        -1.216206    2.633952   -0.061090
H         0.544668    2.870094   -0.051219
H        -0.246584    2.025303    1.299638
