16
0 1
B         1.736760    0.132838    0.016580
O         2.922569   -0.464090   -0.309628
O         1.741771    1.482016    0.167811
C        -1.446613   -0.084368   -0.567376
C        -2.181269    1.052866    0.095257
C        -2.852008   -0.269227   -0.054052
H        -2.512883    1.868514   -0.531531
H        -1.864816    1.357612    1.083771
H        -2.997192   -0.871107    0.833132
H        -3.645020   -0.358857   -0.783329
H         2.613583    1.871308    0.025374
H         2.874044   -1.416216   -0.419731
Si        -0.005144   -0.873962    0.291337
H        -0.326949   -0.939134    1.740655
H         0.174684   -2.278237   -0.173279
H        -1.362609   -0.001645   -1.645109
