20
0 1
B        -2.557140    0.000197    1.327056
C         0.055215   -0.000099   -0.631581
C         0.732102   -1.192367    0.054722
C         0.732086    1.192394    0.054356
C         2.203493    0.772938    0.200557
H         0.291558    1.345647    1.044058
H         0.612471    2.124997   -0.497160
C         2.203518   -0.772880    0.200586
H         2.652550    1.185733    1.103457
H         2.785070    1.150955   -0.640690
H         2.784880   -1.150897   -0.640810
H         2.652822   -1.185646    1.103377
H         0.612405   -2.125174   -0.496433
H         0.291680   -1.345230    1.044533
Si        -1.819173   -0.000088   -0.539481
H         0.345796   -0.000267   -1.688432
H        -2.360004   -1.193923   -1.244592
H        -2.360003    1.193555   -1.244921
H        -1.876907    0.000400    2.305970
H        -3.736682    0.000174    1.497259
