14
0 1
Si         0.134527    0.690811    0.461387
B        -1.616864   -0.228015    0.019572
N         1.454956   -0.597209    0.031596
O        -1.678538   -1.544583   -0.261107
O        -2.737577    0.537023    0.022098
O         1.106083   -1.771640   -0.077693
O         2.602980   -0.235925   -0.096638
C         0.595761    2.211836   -0.486803
H         0.528159    2.041585   -1.561143
H         1.610145    2.525845   -0.246437
H        -0.091316    3.020461   -0.231873
H        -0.801837   -1.965161   -0.235601
H        -3.537392    0.037204   -0.184179
H         0.390339    0.839234    1.908326
