11
0 1
Si         0.699254   -0.664240    0.000001
B        -1.317515   -0.529865    0.000004
O        -1.884912    0.697930   -0.000002
C         1.554928    1.002144   -0.000002
H         1.271676    1.580680   -0.879871
H         2.639578    0.893730   -0.000003
H         1.271679    1.580681    0.879868
H        -2.847499    0.692099   -0.000003
H        -2.035647   -1.493198    0.000004
H         1.123979   -1.450805   -1.188631
H         1.123981   -1.450803    1.188633
