13
0 1
Si         0.064837   -0.129906    0.481128
N         1.153179   -1.219903   -0.517199
B        -1.891228   -0.279620   -0.009300
N         0.704769    1.538795   -0.039070
F         0.491938   -0.253391    1.988727
O        -0.155109    2.337489   -0.403730
O        -2.541980    0.770692   -0.528343
O         0.877679   -1.000641   -1.693835
O        -2.466627   -1.474922    0.217159
O         1.964492   -2.009611   -0.113984
O         1.883806    1.781180    0.021983
H        -3.394423   -1.528007   -0.045027
H        -1.988329    1.559566   -0.642920
