12
0 1
Si        -0.327071   -0.118407    0.296254
B         1.665724   -0.008836   -0.024562
O         2.244617    1.069288   -0.611577
O         2.438927   -1.050244    0.363751
C        -0.892281   -0.617529    1.983057
H        -0.513746   -1.612876    2.218760
H        -1.980505   -0.636608    2.036695
H        -0.518103    0.081489    2.731905
Cl        -1.057495    1.786441   -0.109310
Cl        -1.169445   -1.399577   -1.081865
H         3.375130   -0.928659    0.162744
H         1.630908    1.774667   -0.840618
