12
0 2
Si         0.109758   -1.072008   -0.177825
N        -1.241530    0.205649   -0.031927
O        -1.061346    1.284229   -0.573204
O        -2.257775   -0.105465    0.560652
C         1.713850   -0.182105   -0.488295
C         2.106986    0.765499    0.650482
H         1.624215    0.364489   -1.427991
H         2.482936   -0.944127   -0.641237
H         1.369720    1.557860    0.772118
H         3.067716    1.235674    0.438363
H         2.200181    0.238259    1.600548
H         0.037291   -1.814056    1.098534
