11
0 1
Si         0.121401   -1.065489    0.000007
N         1.566545    0.149314    0.000003
B        -1.549191    0.082822   -0.000009
O         1.319924    1.354463   -0.000003
O         2.689709   -0.297156    0.000011
O        -1.473166    1.426364   -0.000012
O        -2.741640   -0.559175   -0.000007
H        -3.498558    0.040058   -0.000012
H        -0.553585    1.745144   -0.000013
H         0.387024   -1.861801    1.209741
H         0.387031   -1.861824   -1.209709
