12
0 1
Si        -0.203276   -1.120517   -0.000000
B         1.639194   -0.287656   -0.000003
O         1.801678    1.054519   -0.000001
C        -1.635652    0.070959    0.000001
C        -1.516193    1.392569    0.000001
H        -2.641041   -0.344243    0.000002
H        -0.548846    1.879826    0.000000
H        -2.383490    2.044133    0.000003
H         2.720176    1.342567    0.000004
H         2.620189   -0.981562    0.000009
H        -0.309721   -2.016259    1.182566
H        -0.309724   -2.016261   -1.182565
