9
0 2
B         0.000000    0.098365    0.000029
Si         1.955174    0.000176   -0.000002
Si        -1.955174    0.000176   -0.000002
H        -2.587167    0.604775    1.196273
H        -2.235724   -1.458000   -0.000048
H        -2.587131    0.604846   -1.196262
H         2.587167    0.604779    1.196271
H         2.587131    0.604842   -1.196263
H         2.235724   -1.458000   -0.000044
