15
0 1
C        -2.028391   -0.186327   -0.344776
B         1.208991    0.139217    0.035974
C         1.104055    1.671137    0.283448
H         0.130290    2.100473    0.046749
H         1.900514    2.251718   -0.185856
H         1.222212    1.799472    1.369981
C         2.542387   -0.518241   -0.431325
H         3.430740    0.074944   -0.207304
H         2.466252   -0.558829   -1.528720
H         2.696690   -1.549134   -0.111184
O        -2.219383    1.001525   -0.258622
Si        -0.428150   -1.017658    0.338882
H        -0.685469   -1.182096    1.793358
H        -0.355526   -2.379069   -0.249859
H        -2.809802   -0.817967   -0.826498
