17
0 1
C         0.094049    0.398726   -0.000005
B        -1.348853    0.914394   -0.000010
Si        -3.030074   -0.188419    0.000005
C         1.163251    1.306823    0.000001
C         2.475454    0.876027    0.000005
C         2.750512   -0.482909    0.000002
C         1.716511   -1.406409   -0.000005
C         0.406580   -0.968066   -0.000007
H        -0.395988   -1.693832   -0.000011
H         0.945940    2.367258    0.000002
H         3.285789    1.592864    0.000009
H         3.777675   -0.824587    0.000004
H         1.936708   -2.465631   -0.000007
H        -1.503332    2.100628    0.000009
H        -2.833737   -1.658881    0.000006
H        -3.842957    0.151462   -1.194699
H        -3.842937    0.151466    1.194722
