13
0 2
Si         0.000046   -0.000027   -0.426124
C        -0.895359   -1.535792    0.176851
H        -0.404988   -2.445173   -0.171364
H        -1.928309   -1.557084   -0.171368
C        -0.882429    1.543287    0.176656
H        -0.910262   -1.561424    1.270719
H        -0.897235    1.569005    1.270542
H        -0.384410    2.448519   -0.171545
H        -1.915128    1.573234   -0.171670
C         1.777722   -0.007453    0.176872
H         2.312741   -0.891331   -0.171253
H         1.807279   -0.007552    1.270746
H         2.320059    0.871929   -0.171337
