20
0 1
C         2.576986   -0.621469   -0.045646
Si         1.961729    1.163223    0.358868
O         2.054132   -1.605212    0.395193
O         3.660305   -0.755623   -0.847414
B         0.021376    1.588737    0.043610
C        -1.184281    0.659578    0.005538
H         3.980110    0.111745   -1.123088
C        -2.454689    1.199913   -0.256484
C        -1.096052   -0.723838    0.229480
C        -2.222295   -1.522851    0.191402
C        -3.460855   -0.960810   -0.075817
C        -3.579957    0.402834   -0.301129
H        -4.549488    0.836277   -0.507134
H        -2.544292    2.265145   -0.426582
H        -0.134482   -1.173711    0.438078
H        -2.136377   -2.586563    0.368097
H        -4.341572   -1.589579   -0.107556
H        -0.177165    2.759568   -0.100660
H         2.837012    2.067620   -0.435284
H         2.306538    1.367227    1.785633
