16
0 1
O        -1.075263   -0.827471    0.331301
C        -2.371886   -1.162237    0.132640
C        -0.935022    0.517529    0.047041
C        -3.075564   -0.086901   -0.270379
C        -2.146051    0.994910   -0.326980
H        -4.126520   -0.061431   -0.501382
H        -2.632576   -2.189422    0.317389
H        -2.356490    2.011634   -0.613618
B         2.098639   -0.270825   -0.073678
O         1.703572   -1.571217   -0.096893
O         3.413947    0.015551   -0.245581
H         3.954130   -0.775040   -0.367435
H         0.754704   -1.688460    0.035971
Si         0.780275    1.241195    0.231464
H         0.892721    2.351932   -0.738596
H         0.930080    1.813464    1.591028
