18
0 1
Si         0.435839    1.241875   -0.147916
B         1.738896   -0.310140   -0.029929
O         2.832254   -0.352130    0.788786
O         1.518576   -1.391287   -0.823538
C        -1.310524    0.659873   -0.508801
C        -1.870037   -0.304569    0.536007
H        -1.305879    0.176559   -1.490290
H        -1.964478    1.531686   -0.601178
C        -3.284843   -0.766404    0.220252
H        -1.856769    0.172568    1.520207
H        -1.215121   -1.176765    0.611416
H        -3.970336    0.081611    0.168773
H        -3.660375   -1.454415    0.978985
H        -3.320406   -1.278528   -0.742978
H         2.943652    0.417631    1.350783
H         2.187599   -2.078709   -0.714380
H         0.886940    2.186884   -1.201927
H         0.464740    1.999860    1.134333
