22
0 1
C         2.290948    0.864585   -0.770070
C         0.979362    1.271349   -0.594434
C         2.804564   -0.220138   -0.072345
C         1.960323   -0.889273    0.805551
C         0.650259   -0.481783    0.981659
C         0.127400    0.609951    0.286678
H         2.927812    1.399865   -1.464097
H         0.614741    2.122183   -1.157140
B        -2.794172   -0.444112   -0.239785
O        -2.213869   -1.570617   -0.746435
O        -4.149277   -0.376939   -0.226577
H         2.335814   -1.740296    1.361136
C         4.235046   -0.641265   -0.238334
H         4.618314   -0.365205   -1.219922
H         4.348121   -1.718270   -0.117769
H         4.869343   -0.160096    0.509316
H         0.026758   -1.026570    1.682793
H        -4.566966   -1.164698   -0.596151
H        -1.251623   -1.554333   -0.735756
Si        -1.674657    1.088706    0.478331
H        -1.981043    1.342473    1.906905
H        -1.907467    2.343522   -0.275151
