21
0 1
C         1.734353    1.732224    0.510892
C         0.500395    1.171392    0.795621
C         2.746992    0.969127   -0.036871
C         2.538985   -0.381260   -0.307580
C         1.292604   -0.936828   -0.019989
C         0.267575   -0.180087    0.531806
H         1.130952   -1.986952   -0.237496
H         3.707268    1.417838   -0.260079
H         1.913878    2.778546    0.722452
H        -0.272914    1.786062    1.241564
B        -2.727251    0.075224   -0.382795
O        -2.311707    1.109856   -1.167951
O        -4.036811   -0.278183   -0.432424
N         3.531699   -1.145627   -0.898466
H         4.474362   -0.812021   -0.790869
H         3.448863   -2.141932   -0.788229
H        -1.371846    1.306541   -1.090766
H        -4.546796    0.265208   -1.045810
Si        -1.433736   -0.911552    0.830325
H        -1.382475   -2.362801    0.532914
H        -1.811907   -0.746290    2.254746
