10
0 2
Si         1.212065   -0.037800   -0.000000
C        -0.527204    0.673051   -0.000001
C        -1.621256   -0.398746    0.000000
H        -1.550378   -1.039935    0.879484
H        -1.550378   -1.039937   -0.879482
H        -2.614919    0.053058    0.000000
H        -0.634947    1.320793   -0.872908
H        -0.634947    1.320795    0.872905
H         1.453711   -0.865698    1.209408
H         1.453711   -0.865702   -1.209406
