18
0 1
C         2.106288   -0.319664    0.135161
C         1.705164    1.002112    0.152682
C         0.387849    1.313783   -0.126320
C         1.191842   -1.313965   -0.159588
C        -0.112671   -0.959897   -0.432132
C        -0.555921    0.350067   -0.428729
F         3.365556   -0.634807    0.401384
F         2.586098    1.955348    0.437822
F         0.046778    2.604870   -0.091169
F         1.577036   -2.585543   -0.174527
F        -0.978447   -1.941667   -0.712155
B        -3.531188   -0.122665    0.665993
O        -2.910456   -0.688885    1.719191
H        -3.498649   -1.075473    2.376210
Si        -2.377061    0.711830   -0.767990
H        -4.728906   -0.124173    0.613028
H        -2.553964    2.177780   -0.817679
H        -2.708554    0.162227   -2.101841
