19
0 2
B        -2.346188   -0.570214   -0.299767
C        -0.079943   -0.337755    0.517500
C         0.729647   -1.265593   -0.128935
C         0.395149    0.959153    0.675683
C         1.650813    1.315767    0.216576
C         2.451685    0.381183   -0.418546
C         1.985929   -0.911146   -0.589774
H         3.433960    0.658746   -0.776634
H         2.603349   -1.649029   -1.084997
H         0.370229   -2.277802   -0.265445
H        -0.223615    1.695162    1.173898
H         2.006431    2.327939    0.358187
C        -2.954296    0.711518   -0.907314
H        -2.435796    1.629220   -0.611445
H        -3.976054    0.775032   -0.509490
H        -3.052098    0.690306   -1.992221
C        -1.468249   -0.723650    0.977478
H        -1.461866   -1.734759    1.383855
H        -1.798013   -0.040615    1.767118
