8
0 2
Si         0.000481    0.636570   -0.607825
N        -1.432809   -0.446980   -0.087078
N         1.455740   -0.293374    0.119958
F        -0.066992    1.969343    0.223470
O         2.439544   -0.511576   -0.545426
O        -1.268276   -1.609706   -0.400295
O        -2.402131    0.030380    0.445929
O         1.285324   -0.590798    1.283312
