20
0 2
C         0.640048   -1.561871   -0.026114
C         1.983451   -1.797021   -0.021561
C         2.893234   -0.724951    0.004162
C         2.431919    0.556959    0.020119
C         1.046319    0.830066    0.012377
C         0.124936   -0.246303   -0.005819
H        -0.045253   -2.398780   -0.046608
H         2.353429   -2.813494   -0.038103
H         3.956816   -0.922395    0.009148
H         3.123737    1.389865    0.036795
C        -1.278584    0.028654   -0.005771
C        -1.693003    1.341440   -0.013383
C         0.560749    2.157141    0.015929
C        -0.777675    2.407402   -0.000156
H         1.274079    2.971726    0.028471
H        -1.144037    3.425336    0.001513
H        -2.751768    1.569879   -0.019696
Si        -2.581043   -1.289224   -0.065015
H        -2.320134   -2.438174    0.832753
H        -3.900635   -0.683922    0.227228
