20
0 1
Si        -0.064933   -0.103983   -0.999324
N         0.805414   -1.529032   -0.097112
B        -1.834709    0.085100   -0.029195
O         0.140017   -2.245291    0.649616
O         1.984687   -1.709365   -0.301343
O        -2.241639   -0.808721    0.893719
O        -2.600759    1.162377   -0.338656
C         1.103825    1.343343   -0.968085
C         1.082688    2.177997    0.315318
H         0.842534    1.968218   -1.827282
H         2.107950    0.959007   -1.165524
C         1.460443    1.388817    1.560157
H         0.090301    2.615844    0.446858
H         1.771163    3.017501    0.198682
H         0.732866    0.604266    1.782660
H         1.504551    2.035985    2.435717
H         2.433889    0.909872    1.445531
H        -3.430177    1.189827    0.154748
H        -1.590337   -1.520467    1.021454
H        -0.158200   -0.699520   -2.347576
