9
0 2
B        -0.000000   -0.561891   -0.037100
C        -1.395850    0.097367   -0.009562
H        -1.629237    0.264442    1.050883
H        -2.200223   -0.522430   -0.404172
H        -1.423237    1.078515   -0.496589
C         1.395850    0.097367   -0.009562
H         1.423237    1.078517   -0.496586
H         2.200222   -0.522428   -0.404176
H         1.629239    0.264438    1.050883
