8
0 1
Si         0.058603   -0.000000   -0.073747
B        -1.594481   -0.000005   -1.221204
Cl         1.183915    1.656751   -0.502968
Cl         1.183905   -1.656765   -0.502942
Cl        -0.337266    0.000016    1.927967
O        -2.789536   -0.000000   -0.614371
H        -3.548197   -0.000004   -1.207940
H        -1.502982   -0.000014   -2.413587
