13
0 1
C        -1.785847    0.050605   -0.513963
B         1.319571    0.162905    0.014993
O         1.231078    1.525287   -0.002364
O         2.555998   -0.393735    0.033806
C        -2.684320    0.580070    0.307229
H        -3.486861    1.218466   -0.045764
H        -2.664875    0.387608    1.374659
H         3.263355    0.263054    0.039832
H         0.329639    1.859830   -0.016359
Si        -0.343027   -1.000864    0.039770
H        -1.878297    0.282788   -1.573089
H        -0.209419   -2.183329   -0.841812
H        -0.624625   -1.467303    1.419659
