12
0 1
C         0.008183    1.619325    0.521056
B         0.000431    0.103531    0.224008
Si        -1.752441   -0.846004   -0.032130
O        -0.019704    2.231498   -0.531740
Si         1.753945   -0.839698   -0.040152
H         0.028464    2.157930    1.486766
H        -1.752896   -2.028271    0.863624
H        -1.847575   -1.323324   -1.429831
H        -2.934861   -0.013482    0.279118
H         1.648004   -1.975325   -0.981764
H         2.121183   -1.379630    1.293985
H         2.822996    0.076345   -0.492409
