25
0 1
C        -2.580193    0.530394   -1.017577
C        -1.085820    0.301594   -1.218908
C        -2.914194    0.778528    0.448306
H        -3.128852   -0.350418   -1.367415
H        -2.915321    1.370812   -1.629262
C        -2.407254   -0.355381    1.330915
H        -3.991249    0.904845    0.575857
H        -2.448777    1.716753    0.767885
C        -0.912667   -0.586491    1.134421
H        -2.947141   -1.275014    1.082556
H        -2.618674   -0.142337    2.381074
C        -0.562337   -0.838603   -0.336671
H        -0.580319   -1.423092    1.754017
H        -0.370006    0.298009    1.486084
H        -0.545054    1.221591   -0.976705
H        -0.880395    0.089293   -2.270576
B         2.408011    0.430730    0.094582
O         3.619464    0.287644    0.711144
O         1.948413    1.699760   -0.070350
H         2.557833    2.363868    0.275791
H         3.902919   -0.621121    0.832554
Si         1.281896   -1.121991   -0.574755
H        -1.063697   -1.763816   -0.647792
H         1.573443   -1.361222   -2.012421
H         1.700454   -2.353403    0.152745
