19
0 1
Si        -0.007127   -0.127690    0.302200
B         1.999128   -0.391254    0.419257
N        -0.657792   -1.096416   -1.144608
N        -0.266784    1.615319   -0.340664
C        -1.109816   -0.351185    1.762864
O        -1.350419    1.934953   -0.767857
O        -0.254796   -0.759226   -2.241310
O         2.424363   -1.641622    0.702447
O        -1.391705   -2.041420   -0.929144
O         2.846764    0.635183    0.241061
O         0.683793    2.388083   -0.238027
C        -2.602315   -0.081773    1.563153
H        -0.701136    0.276948    2.561272
H        -0.945233   -1.383313    2.087988
H        -2.788532    0.946706    1.259471
H        -3.141731   -0.262463    2.492168
H        -3.018412   -0.737094    0.800286
H         2.394749    1.471374    0.039813
H         3.385255   -1.730412    0.735362
