22
0 1
C         2.408842   -1.097273    0.792916
C         1.373993   -0.275863    1.213992
C         3.030689   -0.866635   -0.421479
C         2.610297    0.193752   -1.208085
C         1.573572    1.007767   -0.789174
C         0.935019    0.787431    0.428801
H         0.901563   -0.458122    2.171799
B        -2.156399   -0.797293   -0.168087
O        -3.439884   -1.199964   -0.363447
O        -1.204633   -1.763640   -0.051216
H         2.731699   -1.916516    1.421808
H         3.091482    0.386485   -2.157928
H         3.838639   -1.505221   -0.751466
H         1.249154    1.828551   -1.416727
C        -0.228799    1.632165    0.852414
H        -0.304814   -1.446780    0.088433
H        -3.521994   -2.160713   -0.411284
Si        -1.804470    1.203349   -0.114035
H        -0.013002    2.691033    0.698745
H        -0.424832    1.499335    1.917458
H        -1.624672    1.699843   -1.502141
H        -2.944191    1.942450    0.479230
