14
0 2
Si        -0.011791    0.066318   -0.872188
N         1.656052   -0.164315   -0.056175
N        -1.095285   -1.091993    0.095431
C        -0.661808    1.779724   -0.571699
O        -0.750944   -1.664465    1.099903
O         2.169447   -1.259358   -0.121941
O         2.152898    0.819497    0.462526
O        -2.213943   -1.139257   -0.400978
C        -0.993298    2.057235    0.898816
H        -1.542454    1.903948   -1.204713
H         0.098159    2.471698   -0.940293
H        -1.771162    1.389712    1.268143
H        -1.359803    3.078297    1.002885
H        -0.114052    1.948944    1.531031
