20
0 2
C         1.648759   -1.548166   -0.000422
C         2.961317   -1.181218    0.006418
C         3.316900    0.181648    0.010589
C         2.351720    1.145328    0.007842
C         0.984659    0.796384    0.000284
C         0.626156   -0.572793   -0.004207
H         1.370243   -2.594568   -0.003299
H         3.736566   -1.935741    0.008939
H         4.362134    0.460717    0.016298
H         2.622489    2.193726    0.011503
C        -0.741208   -0.921267   -0.010699
C        -1.733661    0.029871   -0.007049
C        -0.044199    1.767442   -0.002566
C        -1.352865    1.399665   -0.009983
H         0.229541    2.815280    0.003128
H        -2.120003    2.164352   -0.010119
H        -0.994944   -1.975609   -0.011637
Si        -3.515308   -0.457437   -0.073289
H        -3.718242   -1.829739    0.446367
H        -4.378942    0.524343    0.623615
