13
0 1
B         1.838239    1.068861   -0.163218
Si         0.734289   -0.578812    0.144933
C        -1.840547    0.648629    0.236662
C        -1.045249   -0.464183   -0.445153
H        -1.531541   -1.428909   -0.281344
H        -1.039448   -0.311116   -1.527833
H        -1.386567    1.626306    0.064897
H        -2.865464    0.695991   -0.133690
H        -1.889393    0.497238    1.316421
H         1.405754    2.070112   -0.644510
H         2.989580    1.077075    0.144577
H         0.746928   -0.846087    1.609818
H         1.413677   -1.728223   -0.510358
