17
0 1
C        -0.578475   -1.551119    1.546604
Si        -0.129558   -0.629584   -0.000010
H        -0.433218   -0.937356    2.435612
H         0.057912   -2.432541    1.643821
H        -1.618022   -1.876566    1.515058
C        -0.578463   -1.551104   -1.546636
H        -0.433209   -0.937329   -2.435636
H        -1.618008   -1.876560   -1.515097
H         0.057933   -2.432519   -1.643861
B         1.688955    0.264746    0.000007
N        -1.354477    0.825392    0.000003
O        -0.929375    1.979664    0.000059
O        -2.537863    0.563445   -0.000041
O         2.779411   -0.546934   -0.000022
O         1.836575    1.605662    0.000046
H         3.611673   -0.057621   -0.000010
H         0.976950    2.061845    0.000057
