13
0 1
Si         0.039028   -0.162830   -0.703077
N         1.113722    1.292330   -0.219070
B        -1.835919    0.230100   -0.027250
N         0.808155   -1.524827    0.282198
O         0.453427   -2.622067   -0.115589
O        -2.061121    1.317310    0.725105
O         0.610676    2.149265    0.504006
O        -2.801297   -0.642773   -0.372259
O         2.246517    1.334913   -0.632674
O         1.519095   -1.315350    1.237693
H        -3.672898   -0.430157   -0.015173
H        -1.263941    1.852317    0.882481
H         0.378526   -0.435941   -2.100131
