22
0 1
C         2.669092   -1.306480    0.445514
C         1.391849   -1.476833   -0.061100
C         3.179120   -0.029319    0.583387
C         2.411472    1.062028    0.213863
C         1.129478    0.902878   -0.294752
C         0.602647   -0.391222   -0.437510
H         3.261354   -2.166750    0.727717
H         1.000276   -2.481005   -0.170430
B        -2.419663   -0.092999    0.435691
O        -1.956602    0.290003    1.662028
O        -3.759287   -0.060742    0.225455
H         2.817066    2.060751    0.319606
H         4.175979    0.121138    0.976697
C         0.333571    2.113539   -0.696179
H         0.887022    3.029780   -0.498659
H        -0.611152    2.175611   -0.151726
H         0.088580    2.090784   -1.759140
H        -4.253909    0.231736    1.001066
H        -1.000397    0.238675    1.755110
Si        -1.152635   -0.698159   -1.029891
H        -1.419902    0.010603   -2.303406
H        -1.285974   -2.153726   -1.276025
