8
0 1
Si         0.412093   -0.025902    0.000001
B        -1.486120   -0.689140    0.000002
F         1.199640   -0.550966    1.269669
F         0.548160    1.548431   -0.000021
F         1.199652   -0.551002   -1.269644
O        -2.470396    0.223556   -0.000009
H        -3.362243   -0.140445   -0.000008
H        -1.740362   -1.857846    0.000010
