21
0 1
C         1.926220    1.196827   -0.241800
C         0.614171    0.809394   -0.423751
C         2.892277    0.268645    0.141746
C         2.499327   -1.052356    0.340741
C         1.183002   -1.425826    0.153316
C         0.205212   -0.511677   -0.236064
H         0.912855   -2.462110    0.318723
H         2.211348    2.231652   -0.390524
H        -0.111682    1.559960   -0.711659
B        -2.892683    0.329545    0.154422
O        -2.654674    1.645638   -0.126842
O        -3.989963   -0.094334    0.843240
N         4.201171    0.662544    0.372890
H         4.492943    1.511598   -0.080678
H         4.894748   -0.064791    0.331596
H         3.233346   -1.787192    0.649446
H        -3.303438    2.280272    0.196403
H        -4.611192    0.585781    1.126036
Si        -1.560313   -1.046026   -0.511487
H        -1.819653   -1.266221   -1.959847
H        -1.763821   -2.350596    0.162669
