14
0 1
Cl         3.363327    0.089016    0.018843
N         1.751376    0.631934   -0.147518
C         0.874771   -0.240479    0.165601
N         1.057083   -1.478059    0.656461
H         1.996666   -1.839197    0.648540
H         0.293074   -2.130420    0.692959
C        -0.567677    0.226264   -0.028236
Cl        -0.749248    1.919259   -0.243821
N        -1.206368   -0.487068   -1.249897
O        -0.473170   -1.168170   -1.915072
O        -2.372075   -0.270114   -1.426248
N        -1.420047   -0.265678    1.173509
O        -1.688369    0.519634    2.028966
O        -1.697128   -1.443060    1.141237
