12
0 2
N         0.000000   -0.000000    1.468023
C         0.000000    1.151966    0.759340
C        -0.000000    1.227826   -0.594496
C        -0.000000    0.000000   -1.428690
C        -0.000000   -1.227826   -0.594496
C        -0.000000   -1.151966    0.759340
H         0.000000    2.059929    1.351950
H        -0.000000    2.193780   -1.082039
H        -0.000000   -2.193780   -1.082039
H        -0.000000   -2.059929    1.351950
H         0.863927   -0.000000   -2.110985
H        -0.863927    0.000000   -2.110985
