17
0 1
Cl        2.429327   -0.940755    0.194890
N         1.235482    0.114679   -0.443254
C         1.379795    1.493955    0.047918
N         0.031801    2.021270   -0.137873
H        -0.192416    2.825665    0.426233
C        -0.109632   -0.246431   -0.199539
C        -0.711749   -1.479004   -0.187956
H        -0.129284   -2.382053   -0.303607
C        -2.823305   -0.361624    0.154838
H        -3.893807   -0.416893    0.298318
C        -0.837920    0.928175   -0.034071
C        -2.092935   -1.524715   -0.004643
H        -2.594154   -2.482343    0.017125
C        -2.202276    0.885987    0.139298
H        -2.776524    1.794271    0.265709
H         1.689222    1.493867    1.104144
H         2.115568    2.030633   -0.548236
