18
0 2
C         1.288069    0.383537   -0.136344
C         1.850825   -0.881496   -0.470957
H         1.217178   -1.641052   -0.904058
C         3.182110   -1.119303   -0.252657
H         3.604707   -2.081630   -0.507870
C         3.998350   -0.129939    0.296614
H         5.047871   -0.331356    0.463312
C         3.468222    1.114934    0.634355
H         4.108131    1.874987    1.061376
C         2.139152    1.373567    0.427314
H         1.695077    2.325541    0.681758
N         0.007921    0.691457   -0.284934
C        -0.881283   -0.095528   -0.960870
O        -0.746023   -0.504238   -2.088450
C        -2.185169   -0.376083   -0.217565
Cl        -1.831076   -1.194260    1.318125
Cl        -3.118391    1.104780    0.023549
H        -2.780944   -1.049770   -0.820162
