16
0 2
N        -1.365821    1.681321   -0.730570
C        -1.078325    0.581180   -0.184805
N        -1.976467   -0.292631    0.339211
H        -1.680127   -1.252023    0.418455
C        -3.386150   -0.053274    0.103308
H        -3.962476   -0.780132    0.669226
H        -3.643045   -0.129062   -0.955948
H        -3.643787    0.947183    0.448122
C         0.403467    0.228256   -0.058274
Cl         1.446777    1.574651   -0.306380
N         0.650416   -0.416128    1.327704
O         1.061803    0.284072    2.201626
O         0.343327   -1.582855    1.398061
N         0.789519   -0.889415   -1.060772
O        -0.092708   -1.309870   -1.761044
O         1.939672   -1.225601   -1.046363
