18
0 2
N         1.334706    0.722676   -0.000000
N         3.387791   -0.347052   -0.000000
H         3.648484    0.640713   -0.000000
C         2.067949   -0.411311   -0.000000
C         1.445634   -1.708333   -0.000000
H         2.092041   -2.573611   -0.000000
C         0.100436   -1.802670   -0.000000
H        -0.394824   -2.765548   -0.000000
C        -2.087292   -0.629992    0.000000
H        -2.604528   -1.581156    0.000000
C        -2.793548    0.543736    0.000000
H        -3.875030    0.523341    0.000000
C        -2.122076    1.781494    0.000000
H        -2.695678    2.698540    0.000000
C        -0.760362    1.827137    0.000000
H        -0.218273    2.762435    0.000000
C         0.000000    0.630137    0.000000
C        -0.685686   -0.619212    0.000000
