13
0 2
Cl         2.173111   -0.680995    0.170504
O         1.113753    2.171955    0.049441
O        -0.523793   -2.084108   -0.228387
N        -1.058232    1.418831   -0.233682
N         0.626528   -0.090011   -0.043652
C         0.325278    1.282112   -0.063814
C        -0.490552   -0.891931   -0.218878
C        -1.627092    0.104548   -0.385458
H        -2.001921    0.027291   -1.414005
C        -2.782462   -0.137795    0.577156
H        -2.448592   -0.036710    1.608947
H        -3.167232   -1.144994    0.431439
H        -3.573923    0.585204    0.393930
