17
0 1
Cl        -1.641584    1.418383   -1.162787
Cl        -1.641588   -1.418361   -1.162812
S        -0.649328   -0.000011    1.138832
O        -0.894896   -1.247531    1.773636
O        -0.894896    1.247495    1.773664
N        -1.756464    0.000003   -0.196678
C         1.577393   -1.210893    0.168342
C         2.838851   -1.203222   -0.396310
C         3.464629    0.000006   -0.680330
C         2.838848    1.203229   -0.396294
C         1.577391    1.210890    0.168358
C         0.958722   -0.000004    0.440786
H         1.077870   -2.136498    0.412705
H         3.336566   -2.138897   -0.610087
H         4.452905    0.000010   -1.120403
H         3.336561    2.138908   -0.610058
H         1.077865    2.136491    0.412734
