19
0 2
Cl        -2.601642   -1.469777   -0.853431
Cl        -2.171903    0.308321    1.301894
O         1.251097    2.985924   -0.230500
C         1.288980    1.908995   -1.176818
H         2.304793    1.589607   -1.410257
H         0.765397    2.166570   -2.102329
C         0.486040    0.998584   -0.231846
N        -1.393244   -0.591272    0.028257
C        -0.704201    0.325516   -0.887600
H        -0.345816   -0.310693   -1.696767
H        -1.389979    1.068818   -1.303703
C         0.266642    2.301098    0.558193
H        -0.725700    2.737669    0.430908
H         0.523077    2.283187    1.618363
C         1.375198    0.018153    0.515876
N         1.866585   -0.972144   -0.411280
Cl         2.786376   -2.126015    0.376680
H         0.831156   -0.462121    1.334491
H         2.220837    0.556418    0.960185
