20
0 1
Cl        -2.332901   -1.828857   -1.164321
Cl        -2.686627   -0.158382    1.085040
O        -0.000241    3.351566   -0.000085
C         0.633389    2.357307   -0.811933
H         1.718833    2.423919   -0.761563
H         0.315371    2.415487   -1.855905
C        -0.000005    1.206215    0.000056
N        -1.526821   -0.749940   -0.071800
C        -0.945793    0.359975   -0.837528
H        -0.378140   -0.122377   -1.631893
H        -1.718234    0.985200   -1.294231
C        -0.633464    2.357275    0.812040
H        -1.718931    2.423671    0.761953
H        -0.315175    2.415635    1.855922
C         0.945792    0.359947    0.837596
N         1.526867   -0.749887    0.071787
Cl         2.333012   -1.828837    1.164227
Cl         2.686635   -0.158175   -1.085015
H         0.378146   -0.122482    1.631920
H         1.718210    0.985161    1.294351
