20
0 1
Cl         1.784663    1.713569    0.476400
S         0.832396   -0.685345   -0.715637
O         1.179774   -0.039086   -1.933473
O         0.999963   -2.089758   -0.523542
N         1.793850   -0.002938    0.480978
C        -0.826387   -0.258168   -0.305551
C        -1.553164   -1.088774    0.533850
H        -1.115256   -2.011614    0.885925
C        -2.843695   -0.732778    0.880702
H        -3.422916   -1.376797    1.528087
C        -3.395012    0.439847    0.390226
H        -4.406026    0.713198    0.661312
C        -2.663025    1.258507   -0.454476
H        -3.100898    2.167133   -0.844274
C        -1.371699    0.913065   -0.808215
H        -0.790414    1.529140   -1.478159
C         1.680944   -0.544854    1.830397
H         1.725064   -1.627356    1.755151
H         0.756700   -0.236220    2.325604
H         2.533523   -0.192387    2.405438
