20
0 1
Cl         1.627302   -1.933963   -0.688735
N         0.014104   -1.580890   -0.157482
C        -0.133248   -1.439911    1.278398
C        -0.170867   -0.237682    0.415008
C         1.014598    0.695655    0.487075
O         1.752723    0.781002    1.425280
O         1.133757    1.377201   -0.641718
C         2.219275    2.304938   -0.698603
C        -1.474916    0.447892    0.129751
O        -1.644346    1.618970    0.324554
O        -2.412565   -0.393168   -0.285237
C        -3.700625    0.182456   -0.517426
H         0.747994   -1.535738    1.898562
H        -1.055433   -1.852571    1.664761
H         3.165701    1.782550   -0.573667
H         2.112967    3.052087    0.085288
H         2.160016    2.765854   -1.678884
H        -3.635930    0.952571   -1.283319
H        -4.330868   -0.636083   -0.849047
H        -4.089176    0.622804    0.398930
