13
0 2
N        -1.549955   -1.157334    0.000002
N        -2.363412    0.001783   -0.000001
N        -1.681106    1.058029   -0.000001
C        -0.295258   -0.713016    0.000000
C        -0.319823    0.692625    0.000000
C         0.815965    1.440915   -0.000001
H         0.791319    2.521622   -0.000001
C         2.034821    0.734351    0.000000
H         2.962359    1.290795    0.000000
C         2.081494   -0.657181    0.000000
H         3.042848   -1.151484    0.000001
C         0.920388   -1.411949    0.000000
H         0.939258   -2.492749    0.000001
