14
0 2
O        -2.650654   -0.245751    0.045861
N         1.482745    1.786352    0.048657
N        -0.760874    1.061526   -0.009357
N         0.829141   -0.482814   -0.199727
C         0.620541    0.867495   -0.046587
C        -1.459141   -0.118135    0.009971
C        -0.404265   -1.210499   -0.008972
C         2.113332   -1.073905    0.076535
H        -1.192517    1.969558    0.025665
H        -0.435832   -1.751479    0.943685
H        -0.605598   -1.918491   -0.814046
H         2.256577   -1.270566    1.144462
H         2.207231   -2.011299   -0.470131
H         2.895491   -0.396900   -0.259227
