22
0 1
Cl        2.356633   -0.000000   -0.400017
N         0.767550   -0.000000    0.354124
C         0.079116   -1.216746    0.123910
C        -1.188340   -1.223238   -0.270590
C        -1.996660    0.000000   -0.558716
C         0.835669   -2.459744    0.463284
C        -3.299899    0.000000    0.246509
H        -1.694399   -2.179351   -0.327895
H         1.635041   -2.652258   -0.251175
H         1.292563   -2.369865    1.449704
H         0.161932   -3.313434    0.462519
H        -3.898117   -0.882995    0.016483
H        -3.898117    0.882996    0.016484
C        -1.188340    1.223238   -0.270590
C         0.079116    1.216746    0.123911
C         0.835670    2.459744    0.463284
H         1.635042    2.652257   -0.251175
H         1.292564    2.369865    1.449704
H         0.161934    3.313433    0.462519
H        -1.694398    2.179352   -0.327894
H        -3.087671    0.000000    1.316265
H        -2.279960    0.000001   -1.620124
