15
0 2
N         0.046013   -0.814607    0.000005
S        -1.512245   -0.224355    0.000006
S         1.397120    0.136044   -0.000005
O        -2.047949   -0.673509   -1.242276
O        -2.047938   -0.673484    1.242301
O         1.428226    0.849329   -1.238977
O         1.428230    0.849352    1.238954
C        -1.458111    1.535478   -0.000013
H        -2.499850    1.850829   -0.000013
H        -0.952823    1.877256   -0.898750
H        -0.952816    1.877275    0.898714
C         2.649679   -1.093697    0.000005
H         2.546382   -1.696764   -0.897616
H         2.546383   -1.696748    0.897637
H         3.598663   -0.560803    0.000000
