12
0 1
Cl        -0.548563    1.665917   -0.157738
O         2.076477    0.603164    0.318397
O        -0.947591   -0.856683   -0.430825
N        -0.147985    0.037559    0.260831
N         1.503222   -1.531168   -0.202721
C         1.250736   -0.238881    0.098853
C        -2.117473   -1.140734    0.328185
H         0.776526   -2.122002   -0.561313
H         2.468108   -1.778891   -0.326134
H        -2.668121   -1.877216   -0.251957
H        -1.848889   -1.542102    1.305178
H        -2.719382   -0.239274    0.446206
