15
0 2
S         1.512245   -0.224355    0.000002
S        -1.397120    0.136044   -0.000003
N        -0.046013   -0.814607   -0.000013
O         2.047936   -0.673510    1.242288
O         2.047951   -0.673483   -1.242288
O        -1.428226    0.849355   -1.238960
O        -1.428230    0.849326    1.238971
C         1.458111    1.535478    0.000020
H         2.499850    1.850829    0.000027
H         0.952816    1.877257    0.898753
H         0.952823    1.877275   -0.898711
C        -2.649679   -1.093697   -0.000018
H        -3.598663   -0.560803   -0.000013
H        -2.546383   -1.696767    0.897601
H        -2.546382   -1.696745   -0.897652
