19
0 1
C        -0.777901    0.372955    0.016781
C        -1.602925    0.657405    1.093585
H        -1.222487    1.258010    1.908999
C        -2.897742    0.172561    1.108663
H        -3.543638    0.388154    1.948814
C        -3.364924   -0.586091    0.047022
H        -4.377859   -0.965338    0.059912
C        -2.539500   -0.857169   -1.031255
H        -2.904824   -1.447771   -1.860148
C        -1.242981   -0.374044   -1.051739
H        -0.583899   -0.578436   -1.883211
N         0.558048    0.872342    0.006819
Cl         0.767625    2.436639   -0.632049
C         1.681724    0.232178    0.461124
O         2.776596    0.730291    0.454259
C         1.455464   -1.175104    0.983908
Cl         1.555370   -2.351734   -0.353852
H         0.492061   -1.308240    1.463302
H         2.263341   -1.394614    1.672318
