10
0 1
F         1.583013   -1.078273    0.038880
S        -0.699300   -0.000003   -0.134924
O        -1.178619   -1.246321   -0.614203
N         1.024921   -0.000004   -0.618675
C        -0.622253    0.000022    1.624403
H        -1.658509    0.000024    1.957882
H        -0.114920   -0.900675    1.956517
F         1.583010    1.078276    0.038866
O        -1.178628    1.246299   -0.614238
H        -0.114926    0.900732    1.956491
