14
0 2
O        -2.650654   -0.245751    0.045860
N         1.482747    1.786351    0.048661
N        -0.760873    1.061527   -0.009361
N         0.829140   -0.482813   -0.199725
C         0.620541    0.867496   -0.046587
C        -1.459141   -0.118135    0.009970
C        -0.404265   -1.210499   -0.008966
C         2.113331   -1.073906    0.076531
H        -1.192516    1.969559    0.025665
H        -0.435833   -1.751472    0.943695
H        -0.605598   -1.918498   -0.814035
H         2.256579   -1.270573    1.144457
H         2.207227   -2.011297   -0.470139
H         2.895490   -0.396900   -0.259231
