19
0 1
F        -3.831764   -0.014325    0.387801
N        -0.621852   -1.059666   -0.070249
N        -2.869522   -0.768516   -0.305835
H        -2.903595   -1.690020    0.119591
C        -1.594358   -0.203802   -0.133290
C        -1.434329    1.201196   -0.130731
H        -2.299890    1.843245   -0.179418
C        -0.169370    1.685661   -0.062593
H         0.011240    2.753329   -0.052061
C         2.269549    1.231954    0.041469
H         2.475230    2.295080    0.052304
C         3.288655    0.325934    0.082522
H         4.315322    0.663109    0.126457
C         3.007951   -1.053157    0.068062
H         3.824616   -1.762105    0.101101
C         1.720509   -1.502387    0.012892
H         1.485444   -2.557573    0.001746
C         0.650743   -0.586612   -0.032073
C         0.930173    0.798070   -0.017481
