16
0 1
F        -0.145061   -1.855195   -0.458473
N        -0.010022   -0.479699   -0.591825
S        -1.486219    0.259033   -0.138106
S         1.502139   -0.007014    0.153041
O        -1.163709    1.646935   -0.196151
O        -2.476883   -0.318514   -0.972750
O         1.269214    0.416707    1.495338
O         2.378870   -1.086941   -0.129397
C        -1.768984   -0.243450    1.523005
H        -2.731924    0.181001    1.800621
H        -0.969853    0.141874    2.148353
H        -1.816186   -1.329070    1.548491
C         1.881621    1.382230   -0.849692
H         1.088905    2.116877   -0.744536
H         1.990094    1.047381   -1.876676
H         2.824182    1.766110   -0.462400
