22
0 1
F        -2.273268    0.000000   -0.259339
N        -0.976606    0.000000    0.362933
C        -0.344848    1.214457    0.011406
C         0.930756    1.225269   -0.352409
C         1.774034   -0.000000   -0.491431
C        -1.184898    2.433212    0.198519
C         2.926160   -0.000000    0.520316
H         1.411130    2.184846   -0.499416
H        -2.012549    2.451511   -0.508929
H        -1.612621    2.449138    1.201890
H        -0.581506    3.326565    0.054308
H         3.553839    0.883303    0.392846
H         3.553839   -0.883303    0.392846
C         0.930756   -1.225269   -0.352409
C        -0.344848   -1.214457    0.011406
C        -1.184898   -2.433212    0.198519
H        -2.012549   -2.451511   -0.508929
H        -1.612621   -2.449138    1.201890
H        -0.581506   -3.326565    0.054308
H         1.411130   -2.184846   -0.499416
H         2.537799   -0.000000    1.539131
H         2.227970   -0.000000   -1.490510
