20
0 1
F        -3.395488    0.958664   -0.810551
S        -1.554337   -0.267122    0.067697
O        -1.962766   -1.632644   -0.100147
O        -1.973346    0.100680    1.570187
N        -1.973299    0.899253   -0.851122
C         0.179785   -0.092973    0.015391
C         0.931459   -1.215971   -0.275926
C         2.310368   -1.109244   -0.305923
C         2.939810    0.101190   -0.052032
C         2.154976    1.215475    0.240853
C         0.780872    1.130343    0.279041
C         4.432948    0.222315   -0.100290
H         0.437403   -2.155443   -0.478683
H         2.905364   -1.983515   -0.534881
H         2.633313    2.165567    0.441930
H         0.173790    1.995277    0.501220
H         4.907753   -0.749789   -0.218182
H         4.817621    0.682704    0.810219
H         4.741011    0.851504   -0.937078
H        -2.266797   -0.706194    2.018121
