18
0 2
C        -0.911978   -0.299906   -0.263492
C        -1.231327    0.971776    0.293633
H        -0.440884    1.689294    0.454613
C        -2.529797    1.276290    0.606912
H        -2.767113    2.242928    1.029987
C        -3.549062    0.349926    0.385192
H        -4.569724    0.604166    0.637126
C        -3.259071   -0.902419   -0.155801
H        -4.055403   -1.614888   -0.322293
C        -1.967601   -1.229427   -0.473286
H        -1.708493   -2.192360   -0.890275
N         0.317321   -0.690810   -0.573899
C         1.393435    0.157400   -0.589204
O         1.452940    1.223883   -1.144112
C         2.620659   -0.470506    0.083593
F         3.633899    0.409342    0.117895
F         2.294695   -0.789760    1.366590
H         2.947959   -1.379584   -0.424614
