17
0 1
F        -1.844817   -1.214787    0.928000
N        -1.451364   -0.733168   -0.397314
C        -2.027413    0.608307   -0.506903
N        -1.039099    1.575493   -0.029295
H        -1.276305    2.074407    0.815051
C        -0.055240   -0.473720   -0.273806
C         0.971172   -1.389482   -0.345164
H         0.764510   -2.428512   -0.560500
C         2.485101    0.406642    0.187720
H         3.498007    0.742988    0.366034
C         0.166715    0.867844    0.009908
C         2.258127   -0.932883   -0.111911
H         3.091785   -1.619157   -0.162188
C         1.449914    1.326594    0.248880
H         1.640283    2.368368    0.467614
H        -2.970311    0.652400    0.028482
H        -2.201636    0.766499   -1.572570
