15
0 2
S        -1.512245   -0.224355   -0.000009
S         1.397120    0.136044    0.000007
N         0.046013   -0.814607   -0.000011
O        -2.047940   -0.673482   -1.242304
O        -2.047947   -0.673511    1.242273
O         1.428223    0.849325    1.238981
O         1.428233    0.849355   -1.238950
C        -1.458111    1.535478    0.000012
H        -2.499850    1.850829    0.000012
H        -0.952816    1.877276   -0.898714
H        -0.952822    1.877255    0.898750
C         2.649679   -1.093697   -0.000002
H         3.598663   -0.560803    0.000006
H         2.546385   -1.696746   -0.897635
H         2.546380   -1.696766    0.897617
