15
0 2
N        -0.046013   -0.814607   -0.000046
S         1.512245   -0.224355   -0.000003
S        -1.397120    0.136044   -0.000001
O         2.047926   -0.673547    1.242275
O         2.047961   -0.673446   -1.242302
O        -1.428228    0.849286    1.238995
O        -1.428228    0.849394   -1.238936
C         1.458111    1.535478    0.000066
H         2.499850    1.850829    0.000088
H         0.952811    1.877231    0.898807
H         0.952828    1.877301   -0.898657
C        -2.649679   -1.093697   -0.000054
H        -2.546381   -1.696796    0.897545
H        -2.546383   -1.696716   -0.897707
H        -3.598663   -0.560803   -0.000030
