15
0 1
Cl       -0.997608    2.560117   -0.619249
N        -1.069810    0.191890    0.723054
C        -0.265035    1.371705    0.512599
F        -2.387472    0.597284    0.852108
N         0.995152    0.927065   -0.051252
C        -0.896570   -0.723455   -0.406111
C         1.408234   -0.417311    0.305288
F         1.959004    1.797201    0.452525
Cl       -2.167511   -1.907987   -0.497572
N         0.406534   -1.344708   -0.213659
Cl        2.986948   -0.754875   -0.417009
F         0.282849   -2.305038    0.798257
H        -0.125731    1.897221    1.453188
H         1.514704   -0.561629    1.379933
H        -0.852400   -0.199316   -1.361692
