19
0 2
S         1.905394    0.022112    0.124457
O         2.335177   -1.096450    0.908508
O         2.158593   -0.210855   -1.435738
N         2.548857    1.369944    0.440869
C         0.146552    0.008665    0.059590
C        -0.529288    1.213224    0.074282
C        -1.912530    1.209070    0.035032
C        -2.623151    0.017927   -0.013482
C        -1.915378   -1.182361   -0.020519
C        -0.537512   -1.197072    0.018841
C        -4.122344    0.011594   -0.035136
H         0.027672    2.138332    0.130223
H        -2.447510    2.149722    0.048507
H        -2.456791   -2.119471   -0.052572
H         0.008121   -2.129951    0.027890
H        -4.521573    1.009902   -0.204483
H        -4.520291   -0.351960    0.914036
H        -4.500634   -0.645418   -0.818616
H         3.094450   -0.022403   -1.616204
