7
0 2
N        -0.000001   -1.251283   -0.297819
C         1.038218   -0.434093    0.040634
O         2.206183   -0.405018    0.049276
C        -1.038218   -0.434090    0.040631
N         0.000000    0.625073    0.433430
O        -2.206184   -0.405017    0.049277
F         0.000001    1.785872   -0.247255
