13
0 2
N        -2.206022   -0.433183    1.142557
C        -1.482497   -0.166458    0.152649
N        -1.906858    0.062363   -1.128126
H        -2.880994   -0.140630   -1.290159
H        -1.288351   -0.235683   -1.867526
C         0.005334    0.018909    0.437101
F         0.257460    0.159468    1.715494
N         0.848809   -1.161381   -0.082141
O         1.945621   -1.250662    0.390175
O         0.333460   -1.871433   -0.906504
N         0.548774    1.254088   -0.305769
O         0.832570    1.080231   -1.464865
O         0.603631    2.263512    0.330456
