12
0 1
F        -0.120809    1.609909   -0.044717
O         1.114102   -1.611100    0.021783
O        -1.154237   -0.315126   -0.480077
N        -0.228159    0.214804    0.333290
N         2.087550    0.442659   -0.013810
C         1.058992   -0.415387    0.057481
C        -2.439045   -0.295469    0.142206
H         1.938359    1.432922   -0.065782
H         3.005145    0.052311   -0.129037
H        -3.099083   -0.807004   -0.552764
H        -2.399070   -0.825867    1.091858
H        -2.772405    0.731157    0.290047
