22
0 1
C         0.458115    2.207752    0.693203
H         1.207007    2.939709    0.989497
H        -0.228598    2.054746    1.525978
H        -0.123634    2.615593   -0.133681
F        -1.426115   -1.370245    1.124450
O        -1.658057    1.036887   -1.301363
N        -1.012257   -0.237356    0.420535
C        -3.367645   -0.268052   -0.237586
H        -4.030113    0.295503   -0.887098
H        -3.665041   -0.152401    0.803196
H        -3.429780   -1.329322   -0.477882
C         0.383375   -0.259665    0.163169
C        -1.971831    0.232067   -0.459660
C         1.108435    0.921811    0.291358
C         0.989641   -1.453624   -0.196828
H         0.392256   -2.351058   -0.270933
C         3.087858   -0.320821   -0.339793
H         4.151841   -0.334687   -0.534650
C         2.470033    0.862406    0.018042
H         3.056009    1.768420    0.104612
C         2.347316   -1.486916   -0.441071
H         2.823562   -2.417664   -0.716932
