10
0 2
F         1.846215   -1.222728    0.088673
O         1.629766    1.524106    0.109276
O        -2.630101    0.025877    0.054530
N         0.714536   -0.567400   -0.295870
N        -0.669697    1.193968   -0.062067
C         0.696386    0.804915   -0.063402
C        -0.532915   -1.200161    0.046427
H        -0.505709   -1.649241    1.042743
H        -0.848262   -1.939313   -0.686707
C        -1.425664    0.029791    0.023812
