15
0 1
F        -2.167922   -1.641292    0.049710
O         2.611694   -1.133098    0.042954
N        -1.931313   -0.244930   -0.009210
N         0.312877   -1.064114   -0.032258
N        -0.049894    1.122730   -0.174281
C        -0.660125   -0.090262   -0.067733
C         1.579062   -0.528476    0.007400
C         1.376229    0.977737    0.011216
C        -0.744576    2.360356    0.075566
H         0.100092   -2.047270   -0.012379
H         1.722468    1.382265    0.968581
H         1.954731    1.441765   -0.788702
H        -0.784799    2.599128    1.143141
H        -0.238829    3.168976   -0.449983
H        -1.761157    2.279622   -0.300119
