18
0 2
F         2.287846   -0.957337   -0.088217
F         1.200027   -0.318094    1.689278
N        -1.240185   -0.442535    0.202742
C        -2.463858   -1.221748    0.297838
C        -1.357654    0.908330   -0.003854
O        -2.408455    1.500617   -0.003110
N        -0.169266    1.605667   -0.194728
C         1.106837    1.090612   -0.179285
N         2.141663    1.707192   -0.512039
C         1.166788   -0.338369    0.336731
C        -0.044091   -1.139736   -0.123312
O         0.016281   -1.352144   -1.511928
H        -3.244589   -0.591971    0.709564
H        -2.780801   -1.585140   -0.680689
H        -2.292570   -2.068629    0.960443
H        -0.294875    2.581461   -0.413442
H        -0.029087   -2.085716    0.426641
H         0.814835   -1.845708   -1.732273
