20
0 1
F        -2.748805   -1.013621    0.219858
F         0.383872    2.243768   -0.457395
O        -2.169794    1.740286    0.453092
O        -0.411276   -2.325236   -0.712104
N        -1.559843   -0.447063   -0.029764
N         0.038555    1.035297    0.119429
C        -1.358304    0.912235    0.211334
C        -0.471252   -1.159005   -0.477828
C         0.625161   -0.102269   -0.592428
H         0.713795    0.159283   -1.651745
C         1.968052   -0.568785   -0.041885
H         2.212732   -1.463953   -0.619326
C         3.042067    0.483326   -0.284818
H         4.012361    0.111738    0.043006
H         2.828830    1.397330    0.270592
H         3.120444    0.742725   -1.341468
C         1.877597   -0.950536    1.429463
H         2.844255   -1.308883    1.781273
H         1.597420   -0.090520    2.038275
H         1.152219   -1.746873    1.598637
