13
0 1
F         0.634351    2.111882   -0.000000
N        -0.278907    1.012347   -0.000000
C        -0.077737    0.299039    1.193084
C        -0.077737   -1.023513    1.231057
C        -0.208751   -1.863593    0.000000
C        -0.077737   -1.023513   -1.231057
C        -0.077737    0.299039   -1.193084
H         0.004166    0.927807    2.066819
H        -0.012824   -1.515092    2.192093
H        -0.012824   -1.515092   -2.192093
H         0.004166    0.927807   -2.066819
H        -1.170668   -2.390482    0.000000
H         0.549368   -2.653053    0.000000
