12
0 1
C         1.190374   -0.098212    0.000006
C         0.767131   -1.551265    0.000004
H         1.196374   -2.031821    0.877277
H         1.196380   -2.031822   -0.877266
C        -0.767131   -1.551265   -0.000001
H        -1.196380   -2.031820    0.877270
H        -1.196374   -2.031823   -0.877273
C        -1.190374   -0.098212   -0.000009
F         0.000000    1.956563    0.000001
N         0.000000    0.613607    0.000002
O         2.284353    0.376043    0.000001
O        -2.284353    0.376043   -0.000004
