22
0 1
F         1.830540    1.631345   -0.272505
H         0.033937   -1.930785   -0.535800
H        -2.399834   -2.149028   -0.371757
N         1.423743    0.310380   -0.247536
C         2.426525   -0.567365    0.107793
C         0.023221    0.175661   -0.140616
C        -2.754906   -0.078334    0.041861
C         3.802539    0.025019    0.202103
H         4.075778    0.530942   -0.722549
H         4.493480   -0.787297    0.403953
C        -0.573950   -1.066739   -0.328120
O         2.178017   -1.734791    0.288620
C        -4.243604   -0.227938    0.156735
C        -1.946128   -1.176096   -0.227514
H        -0.305005    2.255661    0.255305
H        -2.735551    2.027670    0.411516
H         3.849546    0.761307    1.003923
C        -0.760808    1.287352    0.123592
C        -2.135380    1.149727    0.208145
H        -4.650716   -0.790917   -0.683874
H        -4.737292    0.742370    0.183391
H        -4.514595   -0.764080    1.068351
