13
0 2
F        -1.745256    1.386994    0.250691
O        -2.095022   -1.394682    0.085285
O         1.002300    1.967175   -0.156867
N         0.202090   -1.498025   -0.271258
N        -0.769574    0.498801    0.016859
C        -1.030894   -0.871133   -0.041591
C         0.543525    0.866915   -0.177577
C         1.217890   -0.478024   -0.410693
H         1.567237   -0.510140   -1.450011
C         2.400589   -0.721396    0.516608
H         2.077504   -0.726663    1.556731
H         3.133024    0.071922    0.382220
H         2.857048   -1.681616    0.287810
