20
0 1
F         1.918392   -1.572747   -0.814214
N         0.538332   -1.807044   -0.602289
C         0.334383   -1.979782    0.822621
C         0.017986   -0.676115    0.204166
C         0.969684    0.466689    0.455326
O         1.579099    0.621809    1.473491
O         1.042218    1.256894   -0.604761
C         1.923776    2.375881   -0.487902
C        -1.422361   -0.367254   -0.071462
O        -2.216967   -1.190914   -0.420873
O        -1.709684    0.906036    0.182924
C        -3.077343    1.282521   -0.000363
H         1.222087   -2.008822    1.438435
H        -0.474356   -2.656039    1.061198
H         2.940083    2.034340   -0.302380
H         1.606137    3.020413    0.329524
H         1.861425    2.898497   -1.436584
H        -3.720862    0.692776    0.649371
H        -3.128759    2.334661    0.259260
H        -3.373688    1.125971   -1.035428
