7
0 2
N        -1.236718    0.507027    0.000000
C         0.000000    0.481072    0.000000
C         0.830016   -0.773311    0.000000
H         0.539035    1.439436    0.000000
H         0.193511   -1.654488    0.000000
H         1.472192   -0.790352    0.881210
H         1.472192   -0.790352   -0.881210
