12
0 1
C        -1.219063   -0.885508   -0.000021
C        -0.748154    0.542437    0.000020
S         1.026693    0.886762   -0.000012
O        -1.463221    1.498344    0.000062
N         1.667685   -0.788688    0.000004
O         2.841020   -0.859468   -0.000030
C        -2.733428   -0.985183   -0.000001
H        -0.782185   -1.385618    0.866189
H        -0.782214   -1.385556   -0.866281
H        -3.159618   -0.503103    0.878009
H        -3.035744   -2.031556   -0.000038
H        -3.159646   -0.503033   -0.877959
