9
0 1
S        -0.124878   -0.995441   -0.024850
N         1.154566    0.258417   -0.006709
O         0.870091    1.390950   -0.284751
O         2.231449   -0.183044    0.309424
O        -1.392285   -0.173381   -0.539371
C        -2.131975    0.586968    0.433411
H        -3.055211    0.876031   -0.060825
H        -1.564434    1.470992    0.715142
H        -2.346451   -0.026893    1.307360
