18
0 1
C         2.470219   -0.044709    0.016882
C         1.988517    1.247539   -0.064853
C         0.623118    1.439694   -0.075404
C         1.639511   -1.143438    0.088230
C         0.273287   -0.938599    0.072948
C        -0.238513    0.349793   -0.009287
H         2.679945    2.073998   -0.118580
H         0.203589    2.433506   -0.134518
H         2.064440   -2.132599    0.156665
H        -0.390088   -1.789145    0.138911
C        -1.703162    0.638738   -0.025380
S        -2.773498   -0.780884   -0.314530
N        -4.325159    0.070371    0.283615
O        -5.283465   -0.568611    0.164361
O        -2.145774    1.739678    0.113087
N         3.929097   -0.258682    0.029927
O         4.637628    0.720884   -0.037220
O         4.325693   -1.400394    0.106822
