12
0 1
S         0.518494   -1.070229   -0.044973
N         1.545760    0.397265   -0.012938
O         1.048631    1.467605   -0.233119
O         2.697535    0.151963    0.249006
O        -0.894822   -0.474890   -0.480241
C        -1.737968    0.082804    0.561756
C        -3.045987    0.457125   -0.077560
H        -1.229983    0.951663    0.977993
H        -1.861249   -0.670627    1.341064
H        -2.890725    1.196883   -0.861441
H        -3.710367    0.884239    0.673935
H        -3.530908   -0.416352   -0.511765
