13
0 1
S        -0.815240   -0.955479   -0.399030
N        -1.752029    0.526397   -0.247599
O        -1.381519    1.340355    0.527303
C         0.529307   -0.746011    0.777412
C         1.856339   -0.334154    0.151372
H         0.617876   -1.694308    1.306155
H         0.183869    0.006299    1.490898
C         1.832722    1.047484   -0.480667
H         2.153585   -1.079056   -0.590067
H         2.613073   -0.365680    0.939575
H         1.096839    1.101531   -1.283990
H         2.804724    1.295246   -0.906404
H         1.580019    1.812111    0.254386
