9
0 1
S         1.644544    0.164863    0.000000
N         0.000000    0.477581    0.000000
C        -0.877178   -0.427270    0.000000
C        -2.331347   -0.105814    0.000000
H        -0.602288   -1.489593    0.000000
H        -2.480453    0.971258    0.000000
H        -2.816777   -0.537386    0.878232
H        -2.816777   -0.537386   -0.878232
H         1.654749   -1.189261    0.000000
