14
0 1
C        -1.226969    0.187246   -0.283849
S         0.118960   -0.889466    0.281586
N         1.548974    0.092402   -0.106176
O         1.408331    1.151954   -0.665507
O         2.591470   -0.411640    0.228939
C        -2.448313   -0.715415   -0.420973
H        -2.728576   -1.156698    0.537005
H        -2.281068   -1.519176   -1.136523
C        -1.472355    1.354030    0.655107
H        -0.925891    0.549625   -1.265464
H        -2.283262    1.972040    0.265367
H        -0.588322    1.980274    0.749056
H        -1.759234    0.999662    1.645705
H        -3.292412   -0.118756   -0.766458
