9
0 1
S         1.011193   -1.160541    0.042824
N         2.312081    0.076890    0.037402
O         2.168212    1.110922    0.612368
O         3.266533   -0.325950   -0.578991
O        -0.120390   -0.411045    0.935332
C        -1.210576    0.193339    0.313848
F        -1.894592    0.746727    1.305890
Cl        -2.231324   -1.021294   -0.476825
Cl        -0.743012    1.442378   -0.836868
