8
0 1
C        -1.830805    0.522250   -0.000003
S        -0.636937   -0.806206   -0.000028
H        -1.736814    1.133396   -0.892627
H        -1.736825    1.133353    0.892652
H        -2.800193    0.022164   -0.000021
N         0.868641    0.140064    0.000016
O         0.801554    1.343302    0.000031
O         1.869592   -0.531247    0.000012
