13
0 1
S         0.698898   -1.068726   -0.220103
N         1.660091    0.431469   -0.024107
O         1.147520    1.492215   -0.233623
O         2.794105    0.199960    0.318090
O        -0.706190   -0.468059   -0.709032
C        -1.678078   -0.020069    0.203134
C        -1.549989   -0.079200    1.511960
C        -2.825991    0.517860   -0.569317
H        -3.609076    0.858940    0.102748
H        -3.231572   -0.247977   -1.231674
H        -2.498334    1.352662   -1.190001
H        -0.671756   -0.475966    1.997375
H        -2.351387    0.287208    2.133811
