20
0 1
C         2.769168    0.157061    0.017178
C         2.195943    1.428997   -0.036846
C         0.832478    1.566623   -0.056434
C         1.955213   -0.968995    0.051659
C         0.580626   -0.815784    0.028802
C         0.002378    0.442838   -0.026152
H         2.850802    2.288614   -0.063126
H         0.376661    2.545866   -0.096887
H         2.377227   -1.960507    0.099914
H        -0.040800   -1.699915    0.068292
C        -1.456123    0.666162   -0.051552
S        -2.468658   -0.824367   -0.297385
N        -4.029885   -0.063860    0.295433
O        -4.958269   -0.763713    0.209237
O        -1.971240    1.740488    0.047362
O         4.113649    0.119493    0.033543
C         4.759884   -1.136426    0.084662
H         4.496874   -1.679556    0.994986
H         5.825191   -0.926000    0.085696
H         4.511239   -1.744612   -0.787773
