10
0 1
S         0.304375   -1.036350   -0.109222
N         1.570609    0.174118   -0.225871
O         1.318607    1.264115    0.165479
C        -1.056100   -0.116729    0.623788
C        -1.908249    0.627824   -0.389265
H        -0.608497    0.571872    1.341823
H        -1.637927   -0.849553    1.182235
H        -1.313664    1.359112   -0.934244
H        -2.714560    1.159013    0.118421
H        -2.352372   -0.057164   -1.110570
