9
0 1
S        -0.787890   -1.072088   -0.200276
N        -1.925932    0.303082   -0.005332
O        -1.589083    1.408668   -0.296747
O        -2.984639   -0.085784    0.418603
O         0.508567   -0.303992   -0.822335
C         1.501873    0.101686    0.046619
F         2.379100    0.772885   -0.667096
F         2.099079   -0.947118    0.603224
F         1.032683    0.870964    1.015634
