8
0 1
N        -1.526823    0.021303   -0.370401
S        -0.454748   -0.067622    1.006500
F        -2.375821    1.084913   -0.140345
F        -2.384219   -1.057091   -0.253044
S         1.294314    0.131540   -0.081013
O         2.299225    0.132107    0.911917
O         1.184067    1.098382   -1.099758
F         1.358747   -1.251790   -0.796862
