7
0 1
S        -0.558062   -0.732142    0.000005
N         1.180221   -0.430832    0.000017
O         1.550949    0.691145   -0.000004
C        -1.263177    0.910646   -0.000016
H        -1.865993    1.060628    0.891920
H        -1.865994    1.060605   -0.891956
H        -0.429094    1.615838   -0.000026
