14
0 1
Cl        -2.598529   -0.007087   -0.540275
O        -1.646822    0.246812    0.837357
O        -0.386196    0.708764    0.454348
C         0.479877   -0.371009    0.227002
O         0.133409   -1.510147    0.324958
N         1.697051    0.095970   -0.110625
C         2.061776    1.497619   -0.158731
H         1.180884    2.127374   -0.189728
H         2.652430    1.680441   -1.057426
H         2.663555    1.774217    0.710972
C         2.769069   -0.858440   -0.299845
H         3.235657   -0.705350   -1.274521
H         2.364549   -1.863401   -0.248077
H         3.531095   -0.737048    0.473968
