11
0 1
Cl         1.634061   -0.597874   -0.244630
O         0.543781   -0.073813    0.925978
C        -0.511222    0.720161    0.384871
O        -1.269076    0.023175   -0.524154
O        -0.073188    1.866850   -0.203803
C        -1.871978   -1.159705   -0.026473
H        -1.121591   -1.909506    0.224088
H        -2.514609   -1.533581   -0.818268
H        -2.476387   -0.942733    0.858545
H         0.080987    1.687601   -1.139926
H        -1.060373    0.969640    1.299715
