8
0 1
Cl         1.690862   -0.469265    0.000012
O         0.747245    0.972794   -0.000014
N        -0.596706    0.828269   -0.000015
N        -1.025214   -0.298269    0.000004
C        -2.477121   -0.374512   -0.000001
H        -2.781134   -0.938839    0.880275
H        -2.781128   -0.938866   -0.880261
H        -2.944195    0.609934   -0.000018
