8
0 2
O        -0.574544    1.271449   -0.539123
S        -0.121728    0.000035   -0.000095
O        -0.574630   -1.102691   -0.831374
C         1.635319   -0.000062    0.000124
O        -0.574780   -0.168752    1.370532
H         1.975926    0.126037   -1.024352
H         1.975685   -0.950399    0.403206
H         1.975752    0.824126    0.621643
