16
0 2
O        -0.032626    0.387005    1.408889
C         0.019450    0.340371    0.048969
O        -0.624016   -0.809780   -0.437977
O         1.304095    0.325351   -0.458212
C        -1.970245   -1.005812   -0.055140
H        -2.220990   -2.026598   -0.333469
H        -2.639786   -0.323219   -0.584976
H        -2.102847   -0.882254    1.019915
C         2.101270   -0.772238   -0.043020
H         3.093422   -0.597554   -0.450412
H         1.706521   -1.712632   -0.426962
H         2.163528   -0.815818    1.046925
C        -0.629118    1.651204   -0.411374
H        -1.640777    1.749175   -0.028826
H        -0.640839    1.615707   -1.499754
H        -0.025996    2.491426   -0.080654
