9
0 1
Cl         1.629940    0.041988    0.000002
O         0.058660   -0.546889    0.000004
C        -0.894990    0.516476   -0.000005
C        -2.253345   -0.137374   -0.000001
H        -0.747049    1.136678    0.887568
H        -2.383699   -0.758879    0.884962
H        -2.383696   -0.758895   -0.884953
H        -0.747048    1.136665   -0.887587
H        -3.026756    0.631133   -0.000010
