7
0 1
Cl        -1.304083   -0.127790    0.000000
O         0.000000    0.927977    0.000000
C         1.237597    0.347564    0.000000
C         1.559068   -0.929002    0.000000
H         1.962319    1.152569    0.000000
H         0.823208   -1.717583    0.000000
H         2.603885   -1.197755    0.000000
