10
0 1
Cl         2.190925   -0.005726   -0.000002
O         0.693874   -0.746720    0.000000
C        -0.379126    0.133206    0.000003
O        -0.279862    1.323399    0.000003
N        -1.504341   -0.604259    0.000009
C        -2.816277    0.001676   -0.000007
H        -1.409286   -1.604437   -0.000006
H        -2.686875    1.080144    0.000072
H        -3.379469   -0.285704    0.888326
H        -3.379400   -0.285581   -0.888424
