8
0 1
Cl         1.792437   -0.319430   -0.025731
O         0.470682    0.568149    0.582992
O        -0.443147    0.830238   -0.432960
O        -1.235277   -0.310911   -0.624618
C        -2.227848   -0.351973    0.391629
H        -2.823783   -1.230471    0.152255
H        -2.846905    0.544481    0.358122
H        -1.771711   -0.471664    1.373971
