15
0 1
Cl        -1.982251   -0.305129   -0.468156
O        -1.022406   -0.058750    0.895321
C         0.222884    0.560270    0.599918
O         0.073597    1.821047    0.072207
N         1.023644   -0.269419   -0.248265
C         1.124091   -1.642749    0.215496
H         0.139836   -2.090961    0.305097
H         1.634147   -1.718456    1.187540
H         1.696851   -2.214787   -0.512499
C         2.340652    0.295545   -0.495514
H         2.259477    1.314442   -0.860902
H         2.845746   -0.304502   -1.250708
H         2.966445    0.302797    0.409924
H         0.627344    0.684484    1.615766
H        -0.172380    1.723343   -0.857329
