7
0 1
Cl        -2.020887    0.026862   -0.004158
O        -0.576943   -0.395887   -0.765016
S         0.770450   -0.110637    0.075742
O         0.608316   -0.526685    1.410204
O         1.770844   -0.598168   -0.796131
O         0.808986    1.460190    0.101453
H         1.138252    1.797927   -0.745262
