14
0 2
O        -0.159559    2.103564   -0.277272
C         0.438602    1.038595   -0.106508
C        -0.246189   -0.237511    0.011349
C         0.416991   -1.421373    0.099740
C         1.815246   -1.422472    0.132792
C         1.881949    0.968094   -0.063144
H         2.407834    1.908970   -0.147978
C         2.535132   -0.224566    0.054596
H         3.616010   -0.251775    0.080006
H         2.340857   -2.363221    0.218515
N        -1.706218   -0.248493    0.037905
O        -2.242257    0.448128    0.864483
O        -2.264656   -0.978243   -0.754301
H        -0.139780   -2.346714    0.147904
