7
0 1
Cl         1.702217    0.283281   -0.134482
S        -1.001904   -0.630565   -0.239459
O         0.382823   -0.548440    0.627200
C        -1.719202    0.968563    0.105485
H        -2.685967    0.976052   -0.400418
H        -1.100627    1.764352   -0.306102
H        -1.868007    1.109005    1.173549
