9
0 1
Cl        -2.033652    0.039805    0.004394
O        -0.607494   -0.461446   -0.737031
S         0.773587   -0.144461    0.079353
O         1.735540   -0.823259   -0.711761
C         0.931054    1.594206   -0.144442
O         0.582672   -0.429116    1.456198
H         0.990289    1.802781   -1.208633
H         1.851297    1.886113    0.356773
H         0.081038    2.091129    0.314930
