10
0 2
O        -2.245193   -0.842649    0.000001
C        -1.270619   -0.160091   -0.000002
O        -1.274737    1.132659   -0.000011
O        -0.004591   -0.737508    0.000005
C         1.055122    0.093516    0.000003
O         0.925385    1.289106   -0.000005
C         2.351358   -0.640027    0.000008
H         2.403061   -1.281431   -0.879232
H         2.403049   -1.281442    0.879240
H         3.171814    0.069622    0.000017
