9
0 1
Cl        -2.255176    0.050526   -0.000001
O        -0.827760   -0.875682    0.000000
C         0.354295   -0.234507    0.000000
S         1.701015   -1.142196    0.000000
O         0.238593    1.066036    0.000000
C         1.430666    1.856408    0.000001
H         1.087680    2.885787    0.000000
H         2.018818    1.638090   -0.888418
H         2.018818    1.638090    0.888420
