12
0 1
Cl         2.543203   -0.256978    0.000000
O         1.288832    0.855735    0.000000
C         0.021449    0.343307    0.000000
C        -0.988963    1.304942    0.000000
N        -0.180206   -0.942234    0.000000
C        -1.443837   -1.373101    0.000000
C        -2.283485    0.845890    0.000000
C        -2.526315   -0.524623    0.000000
H        -0.742628    2.356123    0.000000
H        -3.105152    1.549669    0.000000
H        -3.532397   -0.917652    0.000000
H        -1.576588   -2.448240    0.000000
