8
0 2
O         0.691973    0.065525    1.205136
C        -0.020196   -0.003947    0.050518
O        -0.889909    1.039764   -0.151217
H        -0.399492    1.866935   -0.081138
O        -0.731850   -1.173890   -0.002416
H        -1.537913   -1.014522   -0.507461
O         1.002960    0.062678   -0.904650
H         1.473196   -0.781345   -0.889335
