13
0 2
O        -2.502852    0.246106   -0.000002
O        -1.272008    0.673667   -0.000001
C        -0.316279   -0.405417   -0.000001
O        -0.657228   -1.544014    0.000001
N         0.923853    0.105297   -0.000004
C         1.261255    1.516216    0.000001
H         1.854936    1.752955   -0.885242
H         1.854896    1.752962    0.885269
H         0.371006    2.131333   -0.000022
C         2.042228   -0.816240    0.000003
H         2.659070   -0.656916    0.886622
H         2.659083   -0.656912   -0.886606
H         1.667516   -1.833930   -0.000002
