12
0 1
Cl        -1.799064   -0.051732   -0.065788
O        -0.288333   -0.631134    0.382644
C         0.786770    0.013602   -0.325905
C         0.958702    1.450596    0.113640
H         0.057029    2.030788   -0.075001
H         1.779357    1.912598   -0.435943
H         1.185333    1.494843    1.179500
C         1.991648   -0.847972   -0.019205
H         0.557947   -0.030512   -1.394626
H         2.194683   -0.849847    1.051976
H         2.866786   -0.453137   -0.535136
H         1.826908   -1.873570   -0.344717
