12
0 1
Cl        -2.059035   -0.162540    0.065454
O        -0.456443   -0.216855   -0.424825
C         0.334934    0.750174    0.267514
C         1.755792    0.577593   -0.218879
H        -0.043149    1.751439    0.046785
C         2.367125   -0.763794    0.155573
H         2.342358    1.393717    0.210442
H         1.773738    0.715928   -1.301977
H         2.377615   -0.899643    1.238630
H         3.394964   -0.835810   -0.199489
H         0.261136    0.575247    1.344865
H         1.801378   -1.586703   -0.278629
