8
0 2
O        -0.153761    1.442960    0.000002
C         0.088292    0.269326    0.000005
S         1.735830   -0.316291   -0.000015
O        -0.805471   -0.710703    0.000008
C        -2.180248   -0.297237    0.000013
H        -2.757133   -1.215848    0.000023
H        -2.395282    0.292952   -0.888143
H        -2.395272    0.292965    0.888163
