14
0 2
O         2.646749   -1.500913   -0.000010
C         1.788530   -0.603381    0.000025
C         0.379946   -0.922303    0.000003
C        -0.529090    0.091483    0.000003
C        -0.160395    1.436354    0.000008
C         2.152070    0.793233    0.000000
H         3.208466    1.023626   -0.000010
C         1.196188    1.770226    0.000001
H         1.480492    2.813403   -0.000005
H        -0.929646    2.192940    0.000006
N        -1.969050   -0.239197   -0.000005
O        -2.273090   -1.409344   -0.000007
O        -2.750668    0.686351   -0.000006
H         0.076622   -1.958020   -0.000005
