10
0 1
Cl        -2.333046    0.297392   -0.447126
O        -1.394937   -0.487885    0.719293
O        -0.218737   -0.967132    0.124206
C         0.769874   -0.013314    0.201708
O         0.649910    1.085657    0.630536
O         1.843102   -0.588605   -0.302054
C         3.015498    0.235637   -0.327809
H         2.837631    1.120592   -0.934943
H         3.792334   -0.381575   -0.765863
H         3.284890    0.535104    0.682701
