14
0 1
Cl         1.971304    0.166588   -0.087727
O         0.536381   -0.271135   -0.842562
C        -0.554512   -0.464135    0.076240
O        -0.808111    0.703081    0.779879
O        -0.273453   -1.426982    1.007652
C        -1.094982    1.866674    0.024965
H        -0.325590    2.052127   -0.724709
H        -1.114159    2.689561    0.734126
H        -2.070111    1.792974   -0.460820
C        -1.678931   -0.938883   -0.816545
H        -1.825408   -0.263725   -1.655471
H        -2.587677   -0.994559   -0.221258
H        -1.435035   -1.927322   -1.196128
H         0.177816   -1.002698    1.747904
