14
0 2
O         0.000004    0.265312    1.421247
C         0.000000   -0.024825    0.077038
C        -1.265524   -0.787492   -0.310214
H        -1.294198   -1.749347    0.201868
H        -1.295234   -0.971881   -1.384710
H        -2.149664   -0.219659   -0.023981
C         0.000017    1.374655   -0.577586
H         0.000015    1.244370   -1.659686
H         0.887027    1.933063   -0.285392
H        -0.886978    1.933086   -0.285391
C         1.265503   -0.787525   -0.310215
H         1.294154   -1.749380    0.201867
H         2.149658   -0.219714   -0.023983
H         1.295208   -0.971913   -1.384711
