18
0 2
C        -1.352296    0.934340    0.000000
O        -1.639740    2.130409    0.000000
C         0.048689    0.473101    0.000000
C         1.088918    1.394694    0.000000
H         0.839770    2.446715    0.000000
C         2.398259    0.965231   -0.000001
H         3.203999    1.686949   -0.000001
C         2.689697   -0.399714   -0.000001
H         3.719769   -0.730238   -0.000001
C         1.673370   -1.323046    0.000000
H         1.895595   -2.382617    0.000000
C         0.332550   -0.906346    0.000000
C        -0.738637   -1.841635    0.000001
H        -0.504925   -2.898418    0.000001
C        -2.060907   -1.422326    0.000000
H        -2.851506   -2.161332    0.000000
C        -2.376858   -0.085080    0.000000
H        -3.401507    0.260356   -0.000001
