22
0 1
C        -0.278542   -1.057537   -0.476670
C        -1.615106   -1.437523    0.148517
C        -2.654264   -0.340173   -0.047536
C        -2.151159    0.998268    0.479882
C        -0.811861    1.375665   -0.142179
C         1.538857    0.687543   -0.583612
C         0.229941    0.277126    0.058814
O         2.581125   -0.259433   -0.451390
F         2.915172   -0.270828    0.934847
H        -0.397186   -0.980002   -1.563978
H         0.463681   -1.835885   -0.297962
H        -1.473217   -1.612799    1.219741
H        -1.971995   -2.378040   -0.274969
H        -3.590322   -0.611095    0.444381
H        -2.878762   -0.244309   -1.115041
H        -2.035292    0.936619    1.566555
H        -2.885908    1.782606    0.288983
H        -0.451898    2.316960    0.280354
H        -0.949551    1.546537   -1.216261
H         1.886712    1.657164   -0.218013
H         1.442164    0.742491   -1.673122
H         0.408825    0.172461    1.133529
