8
0 2
O         1.814151   -0.106459    0.000015
C         0.675567    0.311356   -0.000013
N        -0.403425   -0.531064   -0.000020
H         0.469302    1.398819   -0.000031
C        -1.679342    0.101792    0.000010
H        -2.240788   -0.252723   -0.870340
H        -1.654387    1.196833   -0.000005
H        -2.240717   -0.252697    0.870417
