9
0 2
O        -0.745395    1.220123   -0.000005
C        -0.571423   -0.022480   -0.000001
O        -1.670475   -0.638479    0.000001
N         0.619151   -0.625026   -0.000002
C         1.872742    0.099127    0.000005
H         0.613331   -1.631039    0.000013
H         1.655756    1.164011   -0.000060
H         2.457981   -0.135461   -0.888867
H         2.457924   -0.135364    0.888940
