11
0 2
O        -1.473253   -0.674786   -0.194584
C        -0.840728    0.437157    0.269062
C         0.566558    0.656282   -0.260303
H        -1.491771    1.310944    0.098391
C         1.509784   -0.477100    0.107032
H         0.938889    1.607456    0.129931
H         0.510559    0.762995   -1.346138
H         1.627393   -0.555535    1.189949
H         2.498800   -0.326551   -0.325001
H        -0.834573    0.329832    1.371631
H         1.123040   -1.428892   -0.256842
