10
0 2
O         0.000000    1.563924    0.254722
P         0.000000    0.198354   -0.334859
C        -1.446879   -0.795713    0.133073
C         1.446879   -0.795713    0.133073
H        -2.350377   -0.255623   -0.142436
H        -1.445470   -0.954966    1.213018
H        -1.431874   -1.758491   -0.376459
H         2.350377   -0.255623   -0.142436
H         1.431874   -1.758491   -0.376459
H         1.445470   -0.954966    1.213018
