14
0 1
F        -0.980180    1.982350    0.055242
O        -0.140798    1.022148   -0.561995
C         0.089115    0.014467    0.439683
O         1.098037   -0.732501   -0.111841
O        -1.011316   -0.731633    0.693894
C         2.389256   -0.146949   -0.038168
H         3.085232   -0.887368   -0.421840
H         2.644997    0.086607    0.998882
H         2.447704    0.758928   -0.641246
C        -1.525509   -1.489341   -0.398289
H        -2.447573   -1.936391   -0.039002
H        -0.824921   -2.269968   -0.691593
H        -1.738402   -0.844531   -1.250532
H         0.370038    0.518384    1.368329
