13
0 2
O         0.558919    1.655520   -0.018276
C         0.000776    0.458073    0.182370
O         0.683386   -0.622081   -0.367798
O        -1.305170    0.420533   -0.237791
C         2.010092   -0.773820    0.096674
H         2.401825   -1.671504   -0.373914
H         2.033347   -0.899722    1.184533
H         2.627041    0.082723   -0.176146
C        -2.010820   -0.753367    0.122140
H        -3.043476   -0.592498   -0.174993
H        -1.970989   -0.915414    1.204616
H        -1.610544   -1.628833   -0.387983
H         0.065422    0.408157    1.307706
