10
0 1
F         1.822052   -0.941419   -0.000002
O         1.412856    0.423112   -0.000002
C         0.024570    0.529840   -0.000002
O        -0.373790    1.657516    0.000002
N        -0.660525   -0.613831   -0.000002
C        -2.108380   -0.622400    0.000005
H        -0.148903   -1.477930    0.000000
H        -2.454812    0.406861   -0.000015
H        -2.490374   -1.124484    0.888499
H        -2.490379   -1.124519   -0.888467
