14
0 2
O         2.646749   -1.500912   -0.000013
C         1.788530   -0.603381    0.000029
C         0.379946   -0.922302    0.000003
C        -0.529091    0.091482    0.000002
C        -0.160395    1.436354    0.000007
C         2.152070    0.793234    0.000001
H         3.208466    1.023627   -0.000009
C         1.196187    1.770226    0.000001
H         1.480490    2.813403   -0.000006
H        -0.929647    2.192939    0.000004
N        -1.969051   -0.239198   -0.000005
O        -2.273089   -1.409344   -0.000006
O        -2.750667    0.686351   -0.000006
H         0.076623   -1.958020   -0.000006
