17
0 1
F         1.099988    1.810850   -0.584064
O         0.224908    0.749952   -0.932570
C        -0.058753    0.008961    0.284480
O         1.045544   -0.656840    0.723658
O        -0.985653   -0.896701   -0.196906
C         1.615377   -1.611473   -0.164562
H         2.541619   -1.931698    0.303925
H         1.830904   -1.160544   -1.132626
H         0.952336   -2.465234   -0.295935
C        -2.298605   -0.430951   -0.467174
H        -2.799732   -1.239272   -0.992744
H        -2.285083    0.455838   -1.100448
H        -2.838539   -0.218115    0.456972
C        -0.533943    0.916296    1.391449
H         0.302542    1.505586    1.753159
H        -0.912580    0.300905    2.205207
H        -1.314197    1.586592    1.040451
