11
0 2
O        -2.274074    0.000000    0.000004
C        -1.028078    0.000000   -0.000011
C        -0.265754   -1.218892    0.000001
C        -0.265754    1.218892    0.000001
C         1.102535    1.151545    0.000001
C         1.102535   -1.151545    0.000000
N         1.787593    0.000000   -0.000001
H        -0.796988   -2.160309    0.000006
H         1.700254   -2.055293    0.000004
H        -0.796988    2.160309    0.000006
H         1.700254    2.055293    0.000004
