8
0 2
O        -0.691972    0.065530    1.205136
C         0.020196   -0.003946    0.050518
O        -1.002961    0.062676   -0.904650
H        -1.473197   -0.781347   -0.889332
O         0.731849   -1.173891   -0.002413
H         1.537914   -1.014524   -0.507455
O         0.889910    1.039762   -0.151221
H         0.399496    1.866934   -0.081138
