8
0 2
F         2.042930   -0.532224   -0.126857
C        -0.140157    0.091004    0.492435
C         1.158683    0.539550   -0.064332
H         1.622494    1.295088    0.571712
H         1.025070    0.934384   -1.070842
N        -1.174750    0.091135   -0.247455
O        -2.337438   -0.200216   -0.089112
H        -0.222333   -0.258994    1.517302
