7
0 1
F        -1.724421   -0.003291    0.000007
O        -0.564554   -0.827092   -0.000003
C         0.589797   -0.054851   -0.000009
O         1.604732   -0.681213    0.000003
N         0.416225    1.270909   -0.000003
H        -0.495874    1.687457    0.000002
H         1.241879    1.841340    0.000010
