18
0 1
F        -0.000010   -1.486169    1.225626
N         1.109809    0.537684   -0.383305
N        -1.109804    0.537690   -0.383307
C         0.000001   -0.246833   -0.764258
C         0.664510    1.507662    0.527981
H         1.358485    2.149588    1.039801
C        -0.664501    1.507661    0.527985
H        -1.358474    2.149587    1.039808
C         2.428125   -0.040656   -0.338645
H         2.545650   -0.754882    0.481141
H         3.161187    0.756397   -0.224122
C        -2.428122   -0.040644   -0.338650
H        -3.161181    0.756411   -0.224125
H        -2.545651   -0.754872    0.481135
H        -2.633847   -0.556557   -1.276285
O        -0.000004   -1.609872   -0.197471
H         0.000001   -0.585356   -1.812135
H         2.633848   -0.556572   -1.276279
