13
0 2
O        -2.502852    0.246107   -0.000002
O        -1.272007    0.673667    0.000000
C        -0.316280   -0.405417   -0.000001
O        -0.657228   -1.544014    0.000002
N         0.923852    0.105297   -0.000004
C         1.261256    1.516216    0.000001
H         1.854935    1.752954   -0.885243
H         1.854897    1.752961    0.885269
H         0.371006    2.131333   -0.000022
C         2.042228   -0.816240    0.000003
H         2.659070   -0.656915    0.886621
H         2.659082   -0.656911   -0.886607
H         1.667517   -1.833930   -0.000002
