15
0 1
F         2.323725   -0.607130    0.312316
O         0.927240   -0.537947    0.634692
C         0.293640    0.071988   -0.516510
O         0.762228    1.358421   -0.684756
N        -1.076655    0.072903   -0.251430
C        -1.561176    0.913142    0.828052
H        -0.979028    1.828751    0.863282
H        -1.506152    0.418297    1.803896
H        -2.602233    1.171786    0.631816
C        -1.764059   -1.189866   -0.401346
H        -1.385976   -1.715870   -1.277193
H        -2.827264   -1.000897   -0.553098
H        -1.652897   -1.845234    0.470216
H         0.524870   -0.569538   -1.371708
H         1.725575    1.331182   -0.678713
