13
0 2
O         0.415699    0.076665    1.413312
C         0.424585   -0.061891    0.060016
O        -0.770526   -0.633149   -0.408511
O         1.434704   -0.896252   -0.391948
C        -1.972167    0.023393   -0.054079
H        -2.015381    0.221813    1.016983
H        -2.780317   -0.649101   -0.330010
H        -2.089885    0.960408   -0.604304
C         0.693111    1.350707   -0.467904
H        -0.000464    2.075847   -0.050801
H         0.575382    1.300338   -1.549507
H         1.712119    1.635042   -0.222961
H         1.086353   -1.795705   -0.390426
