9
0 2
O         2.307803   -0.014012    0.000002
O         1.194211   -0.698657   -0.000004
C         0.055310    0.135695   -0.000001
O         0.075047    1.315610    0.000004
O        -0.964324   -0.689133   -0.000002
C        -2.254472   -0.060470    0.000001
H        -2.367404    0.555750   -0.889254
H        -2.367398    0.555754    0.889254
H        -2.972123   -0.873315    0.000005
