11
0 1
F        -1.079016    1.310443   -0.497782
O        -0.669166    0.726827    0.729946
C        -0.167339   -0.567499    0.410294
O         0.903665   -0.510918   -0.442668
O        -1.111015   -1.391783   -0.114513
C         1.990882    0.286554   -0.002602
H         1.720321    1.341855    0.020620
H         2.794504    0.127728   -0.715714
H         2.323268   -0.024744    0.991749
H        -1.149510   -1.238988   -1.067111
H         0.093425   -0.907180    1.422212
