8
0 2
O         0.574717   -0.379880    1.327655
S         0.121731    0.000021   -0.000019
O         0.574644   -0.959888   -0.992815
C        -1.635318   -0.000046    0.000050
O         0.574586    1.339782   -0.334862
H        -1.975743   -1.001502    0.250371
H        -1.975829    0.283891   -0.992369
H        -1.975785    0.717441    0.742181
