8
0 1
F         1.773176   -0.692924    0.000008
O         1.235663    0.656336   -0.000005
N        -0.085172    0.690339   -0.000006
N        -0.698977   -0.349787    0.000002
C        -2.141096   -0.160816    0.000001
H        -2.541271   -0.662305   -0.879925
H        -2.425726    0.891267   -0.000003
H        -2.541271   -0.662299    0.879929
