7
0 1
O        -0.594929   -0.579285    0.354666
F        -1.437957    0.508397   -0.116282
O         0.518384   -0.550128   -0.401933
C         1.429060    0.420677    0.122522
H         2.323685    0.312814   -0.485797
H         1.644965    0.203891    1.167246
H         1.010963    1.418962    0.008093
