10
0 2
O        -2.245193   -0.842649    0.000004
C        -1.270618   -0.160091    0.000003
O        -1.274739    1.132658   -0.000002
O        -0.004591   -0.737507    0.000007
C         1.055123    0.093517   -0.000002
O         0.925386    1.289106   -0.000015
C         2.351358   -0.640028    0.000005
H         2.403062   -1.281427   -0.879238
H         2.403046   -1.281448    0.879234
H         3.171815    0.069621    0.000019
