9
0 2
O        -1.508497   -0.892161   -0.000002
C        -0.541688   -0.166635    0.000000
N         0.710380   -0.800524    0.000000
O         1.685381    0.128128    0.000001
H         2.505329   -0.383451    0.000001
C        -0.621811    1.332270    0.000000
H        -1.669084    1.617687   -0.000001
H        -0.121487    1.743941   -0.876103
H        -0.121489    1.743941    0.876103
