11
0 1
F        -2.884255   -0.208666   -0.254117
O        -1.603104   -0.756111   -0.351603
C        -0.738846    0.091750    0.285629
O        -0.985494    1.124721    0.782711
O         0.434995   -0.579243    0.253548
C         1.581754    0.104008   -0.173499
O         1.515724    1.116436   -0.778624
C         2.793029   -0.662870    0.227108
H         2.713291   -1.691271   -0.122329
H         2.858176   -0.688499    1.314865
H         3.674239   -0.185995   -0.189170
