10
0 1
F         2.369126    0.241975    0.708283
O         1.827666   -0.190866   -0.532093
O         0.669922   -0.836171   -0.214326
C        -0.388436    0.069996   -0.155211
O        -0.308321    1.236585   -0.329179
O        -1.440659   -0.663763    0.124222
C        -2.674954    0.060814    0.231412
H        -2.898913    0.556425   -0.710564
H        -2.604421    0.799515    1.026612
H        -3.427318   -0.684852    0.463210
