7
0 2
O        -1.787921    0.026899   -0.000002
N        -0.606538    0.227153   -0.000003
N         0.365946   -0.512319    0.000005
C         1.663701    0.149601    0.000000
H         2.214295   -0.176131    0.881422
H         1.576716    1.235654   -0.000017
H         2.214302   -0.176158   -0.881406
