11
0 2
O         2.261854    0.019671    0.000003
C         1.020223    0.031721   -0.000005
C         0.247134    1.243634    0.000000
C         0.261062   -1.203421    0.000001
N        -1.045386   -1.260399    0.000000
C        -1.113559    1.158136    0.000000
C        -1.721652   -0.104542   -0.000002
H         0.776956    2.186605    0.000002
H        -1.733332    2.044718    0.000002
H         0.821956   -2.132229    0.000002
H        -2.801958   -0.186832    0.000000
