14
0 1
F         1.285886    1.475624   -0.212241
O         0.731351    0.368773   -0.904590
C         0.133773   -0.476797    0.090360
O        -0.844094    0.210820    0.786698
O         1.051956   -0.903843    1.006852
C        -1.861502    0.843806    0.030689
H        -1.440435    1.540294   -0.693995
H        -2.470623    1.389017    0.746196
H        -2.488871    0.112949   -0.484133
C        -0.349785   -1.651307   -0.732806
H        -0.953566   -1.324623   -1.575679
H        -0.943741   -2.288099   -0.081030
H         0.506755   -2.209731   -1.099960
H         1.168886   -0.200634    1.657638
