8
0 1
F        -2.050778   -0.477014    0.000011
O        -0.675810   -0.900654    0.000005
C         0.157364    0.159322   -0.000001
S         1.713059   -0.255425   -0.000008
C        -0.446286    1.514922   -0.000001
H        -1.080301    1.643885    0.877657
H        -1.080312    1.643880   -0.877650
H         0.348677    2.251932   -0.000008
