7
0 2
O         0.669504    1.385798   -0.000006
C         0.396932    0.216459   -0.000004
S        -1.314027   -0.216856    0.000004
C         1.396125   -0.898246   -0.000002
H         2.399517   -0.477851   -0.000156
H         1.255168   -1.524159   -0.881618
H         1.255363   -1.523952    0.881792
