9
0 1
F         1.381658   -0.585810    0.137358
O         0.727371    0.573816   -0.370689
C        -0.525410    0.620995    0.285894
C        -1.458572   -0.496136   -0.113264
H        -0.361303    0.661275    1.365138
H        -1.604683   -0.508292   -1.192835
H        -2.427550   -0.355783    0.367200
H        -1.061094   -1.460674    0.196532
H        -0.895364    1.596087   -0.042529
