8
0 2
O        -2.038859   -0.153537   -0.010156
P         0.449511    0.031136   -0.075845
O         1.518966   -0.288411   -0.991154
O         0.058256    1.528226    0.112335
H        -0.816297    1.657448    0.508156
O         0.564148   -0.521246    1.395532
H         1.117222   -1.308396    1.471084
O        -0.982960   -0.667043   -0.611752
