9
0 1
F        -2.015780    0.070624    0.018642
O        -0.947248   -0.516308   -0.700149
S         0.454569   -0.133749    0.086817
O         1.382092   -0.833348   -0.726707
C         0.547882    1.597612   -0.197114
O         0.296874   -0.383461    1.470767
H         0.592080    1.772276   -1.268022
H         1.457584    1.942219    0.290178
H        -0.321776    2.069136    0.252385
