8
0 2
O        -1.271921    1.522534   -0.000004
C        -0.561162    0.555422   -0.000002
S        -1.342421   -1.021490    0.000001
S         1.190140    0.692678   -0.000001
C         1.727928   -1.027228    0.000004
H         2.815523   -0.989706    0.000006
H         1.397874   -1.549367   -0.894774
H         1.397870   -1.549363    0.894783
