15
0 1
F         1.838806   -1.129537    0.143464
O         0.596095   -0.770994   -0.451019
C         0.119799    0.362235    0.271900
C        -1.307345    0.527335   -0.229993
C         0.988229    1.575840    0.028728
H         0.966549    1.854905   -1.025246
H         2.018627    1.375405    0.314750
H         0.626678    2.417746    0.619808
H         0.109907    0.095458    1.332974
C        -2.240710   -0.605784    0.165200
H        -1.279658    0.641722   -1.316473
H        -1.672439    1.475155    0.170561
H        -1.902824   -1.556843   -0.242881
H        -3.249937   -0.420094   -0.201878
H        -2.294751   -0.707433    1.250355
