8
0 1
F        -1.474648    0.905636    0.001525
O        -1.190608   -0.518010   -0.209556
O        -0.101603   -0.799486    0.458964
O         1.035865   -0.548230   -0.371750
C         1.644408    0.657336    0.076688
H         2.561638    0.718693   -0.506543
H         1.886543    0.595253    1.137546
H         1.007971    1.517111   -0.126118
