14
0 2
O        -0.426910    0.000002    1.672742
Si         0.017188    0.000000    0.065094
C         0.993221    1.531047   -0.350475
H         0.424809    2.431913   -0.118181
H         1.248385    1.551966   -1.411973
H         1.926224    1.567346    0.213818
C         0.993218   -1.531049   -0.350473
H         1.926221   -1.567349    0.213819
H         1.248381   -1.551970   -1.411971
H         0.424804   -2.431914   -0.118177
C        -1.659883    0.000001   -0.767536
H        -2.235778    0.884780   -0.499924
H        -2.235779   -0.884777   -0.499923
H        -1.511955    0.000000   -1.849843
