14
0 2
C         1.707545    0.000000   -0.000001
O         2.423165   -1.027051    0.000001
O         2.423165    1.027051    0.000000
C         0.241089    0.000000    0.000000
C        -0.445040    1.206527    0.000000
C        -1.826616    1.203758    0.000001
C        -2.514486    0.000000    0.000000
C        -1.826616   -1.203757    0.000000
C        -0.445040   -1.206527    0.000000
H         0.110059   -2.135077   -0.000001
H         0.110059    2.135077    0.000000
H        -2.369661    2.138786    0.000001
H        -3.596453    0.000000    0.000000
H        -2.369662   -2.138786   -0.000001
