11
0 2
O        -0.000002    1.414654    0.146388
C         0.000000    0.122363   -0.296267
C        -1.276196   -0.623004    0.078014
H        -1.319514   -0.763468    1.158809
H        -1.306305   -1.605163   -0.394253
H        -2.151273   -0.054076   -0.230951
C         1.276198   -0.623001    0.078014
H        -0.000001    0.270026   -1.396880
H         1.319516   -0.763466    1.158809
H         2.151273   -0.054071   -0.230950
H         1.306310   -1.605160   -0.394253
