10
0 1
S         1.928043   -0.161313   -0.116973
O         3.123499    0.549936    0.135795
S         0.475031    1.312346    0.004199
O        -0.788855    0.589821   -0.799026
S        -1.884594   -0.262629   -0.004066
O        -1.268006   -1.065078    0.972656
O         1.702716   -0.998877   -1.228256
O        -2.780360   -0.727630   -0.977127
F         1.656266   -1.022795    1.147721
F        -2.568227    0.911701    0.745291
