28
0 1
O         0.945246    1.312864   -0.644861
S        -0.625866    1.723616   -0.352681
C        -1.363031    0.116073   -0.322991
C         1.667088    0.742763    0.384355
O         1.255588    0.656633    1.496586
O        -0.726344   -0.889155   -0.467231
C         2.966870    0.240726   -0.144960
C         4.186946   -1.534585   -0.173710
C         2.898556   -1.111059   -0.907049
H         2.918596   -1.058195   -1.992647
H         2.030410   -1.691098   -0.599472
C        -2.837132    0.171293   -0.066888
C        -3.731085   -0.783433   -0.889924
C        -3.332173   -0.550405    1.212932
H        -3.196513    1.201693   -0.105619
C         3.943688   -0.405507    0.848985
H         5.075000   -1.352843   -0.778167
H         3.412742   -0.753112    1.733064
H         4.798175    0.191377    1.160664
C        -4.513210   -1.109465    0.396914
H        -3.148108   -1.634253   -1.237726
H        -4.788451   -2.148434    0.564780
H        -5.403961   -0.490388    0.498111
H        -3.549460    0.076128    2.074709
H         3.427329    1.012343   -0.760795
H        -2.630926   -1.331316    1.501429
H        -4.274161   -0.348771   -1.726213
H         4.228165   -2.552132    0.208842
