8
0 2
O        -1.247592   -0.363311   -0.000019
C        -0.177830    0.477335   -0.000014
C         1.180517   -0.194528   -0.000001
H        -0.301211    1.153734    0.864834
H        -0.301095    1.154103   -0.864569
H         1.293236   -0.823133    0.883009
H         1.980316    0.547822    0.000150
H         1.293369   -0.822878   -0.883177
