11
0 1
S        -0.878618   -1.027741   -0.184155
O         0.226956   -0.307899    0.768687
O         1.034506    0.649583    0.014283
C        -2.227843    0.182789   -0.029531
F        -3.256364   -0.336885   -0.703570
F        -1.922300    1.363834   -0.552823
F        -2.593609    0.382232    1.229966
C         2.298991    0.125280   -0.055841
F         2.319707   -1.042004   -0.694846
F         2.835721   -0.057658    1.140919
F         3.010102    1.008478   -0.731318
