21
0 1
C         3.308197   -0.193925    0.400755
O         2.904741   -0.251178    1.517134
O         2.643851    0.457739   -0.612585
S         1.141057    1.072677   -0.296989
C         0.266506   -0.483580   -0.338174
O         0.896828   -1.491010   -0.516732
C         4.566871   -0.794146   -0.134215
H         5.169197   -1.163973    0.689463
H         5.120588   -0.061810   -0.718777
H         4.299931   -1.617209   -0.797166
C        -1.217082   -0.532470   -0.135928
C        -1.761847   -1.816923   -0.123973
C        -3.111060   -2.027983    0.053713
C        -3.957328   -0.944477    0.225193
C        -3.446016    0.337223    0.217489
C        -2.087729    0.538013    0.039215
H        -3.503558   -3.035222    0.060117
H        -4.091124    1.193512    0.349828
H        -1.081431   -2.644785   -0.258668
H        -5.019169   -1.094180    0.366359
Cl        -1.533988    2.179178    0.043157
