26
0 1
O        -0.757471    1.585792   -0.116244
S         0.866496    1.673740    0.171795
C         1.415070    0.289141   -0.786764
C        -1.457675    0.567202    0.490484
O        -0.964493   -0.187011    1.266621
O         0.658886   -0.413236   -1.392564
C         3.243274   -1.276507   -0.113158
C        -3.589144   -0.741116    0.236425
C        -2.891326    0.597285    0.047363
C         2.905338    0.090352   -0.709684
H        -3.377496    1.380880    0.635466
H        -2.923804    0.925846   -0.991650
H         3.362560    0.890789   -0.120763
H         3.288653    0.167586   -1.728855
C        -3.072631   -1.812143   -0.712504
H        -4.659718   -0.593236    0.082694
H        -3.458548   -1.064810    1.269700
H        -3.230058   -1.522277   -1.753077
H        -3.586799   -2.759118   -0.548534
H        -2.005085   -1.981363   -0.572910
C         2.795253   -1.423246    1.333066
H         4.321955   -1.424161   -0.189135
H         2.773586   -2.043318   -0.730582
H         3.262240   -0.668056    1.968418
H         3.069986   -2.402522    1.724366
H         1.714262   -1.316239    1.432273
