14
0 2
S         1.515699   -0.000001   -0.076597
C        -0.301818    0.000000   -0.006158
C        -0.853724    1.254248   -0.676552
H        -0.576465    1.291133   -1.730128
H        -0.473629    2.153614   -0.194552
C        -0.655239   -0.000004    1.483553
H        -0.266014    0.885301    1.985717
H        -0.266014   -0.885311    1.985712
H        -1.944680    1.260005   -0.615131
C        -0.853729   -1.254242   -0.676560
H        -0.576471   -1.291121   -1.730136
H        -1.944684   -1.259997   -0.615138
H        -0.473636   -2.153613   -0.194565
H        -1.742536   -0.000004    1.588074
