16
0 1
C         2.107411    1.301657   -0.257043
C         1.726485    0.130300    0.628315
H         2.658444    0.962248   -1.133451
H         2.728560    2.012148    0.291149
H         1.216905    1.825218   -0.602495
C        -2.796162    0.702734   -0.058619
C        -1.649449   -0.116629    0.475424
H        -3.586844    0.772539    0.689217
H        -3.207980    0.243779   -0.956827
H        -2.466444    1.710907   -0.308243
S         0.680054   -1.087545   -0.183021
H         1.248132    0.466166    1.549453
H         2.604542   -0.450886    0.922964
O        -0.651405   -0.182708   -0.544919
H        -1.967935   -1.129762    0.733002
H        -1.226705    0.341662    1.374462
