7
0 2
C         0.100018    0.000011   -0.007634
O         0.808814    1.028102    0.001490
O         0.808751   -1.028136    0.001490
C        -1.383179    0.000036   -0.003112
H        -1.757155    0.896094   -0.494488
H        -1.727244   -0.001318    1.031846
H        -1.757158   -0.894794   -0.496730
