7
0 2
S         0.000000    0.000009    0.019638
F         0.000024    1.570829    0.076625
F         1.577314   -0.000058   -0.043213
F         0.000106    0.000071   -1.548173
F        -0.000039   -1.570826    0.076518
F        -1.577303    0.000005   -0.043422
O        -0.000114   -0.000042    1.627598
