10
0 1
S        -1.631041    0.002868   -0.091447
O        -0.075457   -0.501384    0.085480
C         0.920489    0.516550   -0.041335
C         2.268348   -0.155018    0.004564
H         0.806516    1.232129    0.779254
H         0.770143    1.054199   -0.980807
H         2.399663   -0.691883    0.943481
H         3.059073    0.591049   -0.080977
H         2.371315   -0.864634   -0.815675
H        -1.839410    0.475133    1.154670
