8
0 2
O         2.449543   -0.768379   -0.000045
C         1.399816   -0.084067   -0.000007
O         0.237533   -0.755462   -0.000018
O         1.537692    1.127441    0.000017
C        -0.956458   -0.056396    0.000006
F        -1.914012   -0.958594   -0.000018
F        -1.068458    0.702328   -1.076956
F        -1.068452    0.702263    1.077015
