14
0 2
O        -0.000003    0.265312    1.421247
C         0.000000   -0.024825    0.077038
C        -0.000010    1.374655   -0.577586
H        -0.887018    1.933068   -0.285392
H        -0.000009    1.244370   -1.659686
H         0.886988    1.933082   -0.285391
C        -1.265507   -0.787518   -0.310215
H        -2.149659   -0.219703   -0.023983
H        -1.294163   -1.749374    0.201867
H        -1.295213   -0.971907   -1.384710
C         1.265520   -0.787499   -0.310214
H         2.149662   -0.219670   -0.023981
H         1.295229   -0.971887   -1.384710
H         1.294190   -1.749354    0.201868
