7
0 2
C         0.100018    0.000012   -0.007634
O         0.808815    1.028101    0.001490
O         0.808750   -1.028136    0.001490
C        -1.383179    0.000038   -0.003111
H        -1.757155    0.896123   -0.494438
H        -1.727244   -0.001377    1.031846
H        -1.757158   -0.894765   -0.496779
