10
0 1
C        -1.546962    0.804847    0.051585
S        -0.559135   -0.674245   -0.159917
H        -1.140082    1.654833   -0.493516
H        -1.654680    1.046723    1.107182
H        -2.528623    0.565606   -0.360200
O         0.843038   -0.231102    0.587368
C         1.783180    0.446050   -0.234764
H         2.665409    0.611841    0.381146
H         1.394142    1.409937   -0.571497
H         2.048381   -0.157595   -1.104314
