8
0 1
S        -0.631664    1.109497    0.018320
O         0.822498    0.624764   -0.607147
C         1.636773   -0.087887    0.199721
C        -1.491747   -0.411791   -0.140395
F        -2.748200   -0.191163    0.267445
O        -1.097001   -1.446720   -0.521476
O         1.453158   -0.438123    1.303970
F         2.726781   -0.328087   -0.495429
