14
0 2
C         0.853724    1.254250   -0.676548
C         0.301818    0.000000   -0.006158
H         1.944679    1.260008   -0.615127
H         0.473628    2.153615   -0.194545
H         0.576465    1.291139   -1.730124
C         0.655239   -0.000008    1.483553
H         1.742536   -0.000009    1.588074
H         0.266014   -0.885318    1.985710
H         0.266013    0.885295    1.985719
C         0.853729   -1.254239   -0.676564
H         1.944685   -1.259994   -0.615142
H         0.576471   -1.291116   -1.730140
H         0.473636   -2.153612   -0.194572
S        -1.515699   -0.000001   -0.076597
