23
0 1
C        -1.555905    0.201318   -0.468068
O        -0.798456    1.118532   -0.602849
S        -1.012282   -1.474770   -0.319482
O         0.615129   -1.269873   -0.486340
C         1.322212   -0.778898    0.594816
O         0.822524   -0.573477    1.653346
C        -3.054469    0.323826   -0.379817
C         2.749748   -0.552355    0.200449
C         2.911510    0.686062   -0.687875
H         3.104379   -1.436233   -0.330442
H         3.321131   -0.440397    1.120761
C         2.531049    1.981424    0.010966
H         2.309607    0.557695   -1.588398
H         3.954332    0.726374   -1.007969
H         3.121030    2.126646    0.917847
H         1.477050    1.987043    0.285738
H         2.706082    2.835532   -0.643246
C        -3.459292    1.234668    0.773401
H        -3.505822   -0.665860   -0.273850
H        -3.392987    0.736893   -1.332261
H        -3.137721    0.819288    1.728285
H        -4.541187    1.356020    0.800048
H        -3.002076    2.215581    0.658709
