8
0 2
C        -1.180517   -0.194528    0.000001
C         0.177830    0.477335    0.000002
H        -1.980316    0.547822    0.000041
H        -1.293287   -0.823040    0.883071
H        -1.293318   -0.822971   -0.883114
O         1.247592   -0.363311   -0.000011
H         0.301167    1.153873    0.864739
H         0.301139    1.153965   -0.864664
