14
0 2
C         0.559138    1.450920    0.000000
C        -0.652793    2.116064    0.000001
C        -1.838545    1.403079    0.000001
C        -1.801278    0.018050    0.000000
C        -0.600630   -0.659870   -0.000001
C         0.583926    0.064830   -0.000001
H         1.484215    2.013023    0.000000
H        -0.679060    3.196850    0.000002
C         1.857019   -0.694071   -0.000001
O         1.927240   -1.897394   -0.000006
S         3.398129    0.152041    0.000004
Cl        -3.286850   -0.872397    0.000000
H        -0.566411   -1.739602   -0.000002
H        -2.791300    1.912971    0.000002
