8
0 2
C         0.956455   -0.056401    0.000000
O        -0.237532   -0.755475   -0.000022
F         1.068458    0.702312   -1.076971
F         1.914022   -0.958584   -0.000003
F         1.068435    0.702282    1.076994
C        -1.399810   -0.084067   -0.000021
O        -2.449546   -0.768374   -0.000010
O        -1.537686    1.127440    0.000025
