13
0 1
S        -1.816318   -0.120471   -0.109054
O        -0.316262   -0.547621    0.407391
C         0.802855   -0.001422   -0.320315
C         1.975812   -0.895024    0.009293
H         2.187444   -0.863058    1.078584
H         2.864634   -0.565067   -0.528868
H         1.761659   -1.925763   -0.268847
C         1.035659    1.442990    0.065121
H         0.569969   -0.065425   -1.387386
H         1.231599    1.521412    1.135517
H         0.172127    2.060529   -0.180460
H         1.894307    1.844031   -0.474096
H        -1.976516    1.022576    0.586699
