8
0 2
S        -2.567097   -0.489815   -0.000043
C        -1.027610    0.319728   -0.000002
O        -0.903289    1.499275    0.000037
C         1.296075   -0.140087    0.000010
F         2.063940   -1.215015   -0.000015
F         1.564320    0.579543    1.077571
F         1.564346    0.579611   -1.077499
O        -0.005546   -0.591532   -0.000020
