28
0 1
C        -2.860948    1.180805    1.181684
C        -2.153933    2.202593    1.786290
C        -1.005506    2.705017    1.198427
C        -0.577049    2.180509   -0.007689
C        -1.268434    1.157198   -0.624804
C        -2.408311    0.650024   -0.018329
H        -3.757196    0.779805    1.633024
H        -2.494719    2.612582    2.726980
C        -3.190674   -0.459330   -0.622607
O        -4.388071   -0.485910   -0.689183
S        -2.359451   -1.893005   -1.274819
O        -0.756688   -1.652710   -0.890318
C        -0.364362   -1.814410    0.414295
O        -1.098062   -2.189247    1.275011
C         1.050799   -1.418192    0.602907
C         1.594052   -1.555022    1.873519
C         1.804989   -0.878871   -0.430413
C         3.099812   -0.475005   -0.174726
C         2.894132   -1.152866    2.108099
C         3.653190   -0.607605    1.086244
H         0.982856   -1.970433    2.661523
H         3.323895   -1.257111    3.094749
Cl         0.861906    2.795528   -0.751237
Cl         4.040312    0.218773   -1.452654
H        -0.918752    0.763561   -1.566618
H         1.387646   -0.765832   -1.418046
H        -0.442917    3.499054    1.668047
H         4.668735   -0.282786    1.262132
