27
0 1
C         0.502570    0.133042   -0.276681
O        -0.214197    1.094672   -0.270769
S        -0.149657   -1.497063   -0.590352
O        -1.741812   -1.103986   -0.750167
C        -2.465997   -0.835532    0.395425
O        -2.010859   -0.944910    1.487761
C         1.971090    0.181067   -0.076114
C         2.616619    1.393163   -0.290227
C         3.985001    1.483476   -0.129316
C         4.713453    0.367080    0.252361
C         4.072134   -0.839576    0.475997
C         2.702127   -0.934724    0.312773
H         2.202795   -1.872343    0.519387
H         2.028145    2.251398   -0.582896
H         4.487259    2.426022   -0.300021
H         5.785134    0.439961    0.381583
H         4.638452   -1.706630    0.787209
C        -3.845681   -0.386167    0.022612
C        -3.856280    1.056973   -0.494258
H        -4.464143   -0.477321    0.914409
H        -4.231307   -1.056254   -0.745987
C        -3.437523    2.074926    0.554205
H        -4.868124    1.273705   -0.841840
H        -3.201117    1.126729   -1.363427
H        -4.081439    2.020896    1.434011
H        -3.501780    3.086463    0.153131
H        -2.409506    1.911805    0.874822
