23
0 1
C         2.251814    0.816597   -0.076795
O         1.384461    1.576747   -0.363819
O         2.194550   -0.533375   -0.346516
S         0.786894   -1.130794   -0.970320
C        -0.231391   -1.066156    0.477748
O         0.170035   -0.649252    1.525141
C         3.535724    1.131991    0.616995
H         3.654135    2.208771    0.683256
H         4.375029    0.682989    0.089276
H         3.501623    0.701241    1.617721
C        -1.633098   -1.549807    0.218549
C        -2.651030   -0.443423    0.493053
H        -1.803084   -2.398897    0.883140
H        -1.723342   -1.910250   -0.810215
C        -2.522366    0.744267   -0.450178
H        -2.527405   -0.110467    1.525465
H        -3.654013   -0.869598    0.415547
C        -3.550579    1.825493   -0.160737
H        -2.632225    0.398087   -1.482351
H        -1.517652    1.167405   -0.376837
H        -4.567949    1.440706   -0.256901
H        -3.445563    2.665425   -0.847324
H        -3.436671    2.210566    0.854085
