14
0 2
O         2.260505    0.000311   -0.741876
C         1.229676    0.000006   -0.021313
O         1.534424   -0.000488    1.184431
C        -0.154756    0.000213   -0.548175
C        -2.221208   -0.000028    0.081935
C        -1.121336    1.075913    0.009615
H        -1.291935    1.948187   -0.616754
H        -0.806455    1.400177    1.000124
C        -1.121340   -1.075918    0.008775
H        -2.844654    0.000322   -0.811340
H        -0.806461   -1.400956    0.999030
H        -1.291944   -1.947701   -0.618276
H        -0.119512    0.000639   -1.636904
H        -2.864689   -0.000369    0.958662
