28
0 1
C        -1.952934    0.075899    0.017570
O        -0.690927   -0.038772   -0.691379
S         0.493418   -1.015081   -0.064004
C         1.904857    0.138755   -0.005661
C        -2.759744    1.003926   -0.872349
C         3.050204   -0.731148    0.504817
H        -2.868798    0.573749   -1.867115
H        -2.259209    1.967188   -0.966451
H         3.220293   -1.588649   -0.147228
H         2.855487   -1.095594    1.514110
C        -1.765409    0.677476    1.399560
H        -2.727434    0.734640    1.909146
H        -1.354325    1.683608    1.333349
C         1.652793    1.301926    0.941158
H         1.435235    0.953184    1.949903
H         0.817188    1.907779    0.595803
H        -3.751621    1.166909   -0.450418
H         3.967311   -0.140866    0.529777
C        -2.606710   -1.295009    0.103437
H        -2.692627   -1.734403   -0.890105
H        -3.604411   -1.213485    0.535295
H        -2.021718   -1.966865    0.731785
C         2.201298    0.651969   -1.409400
H         2.438444   -0.170947   -2.082704
H         3.051059    1.338264   -1.384906
H         1.342102    1.186080   -1.812765
H        -1.096791    0.065157    2.002308
H         2.536419    1.942974    0.980514
