24
0 1
C        -0.401908   -0.412884    0.637439
O         0.043944   -0.198832    1.723768
O         0.342567   -0.942198   -0.383325
S         1.866731   -1.535556   -0.048978
C         2.922010   -0.104416   -0.089902
O         4.089164   -0.332131    0.062618
C        -1.787285   -0.122131    0.204157
C        -2.246879   -0.425236   -1.072015
C        -3.552496   -0.130501   -1.418570
C        -4.398156    0.464744   -0.496920
C        -3.940821    0.766976    0.776290
C        -2.637732    0.474621    1.127592
H        -2.259543    0.699311    2.114857
H        -1.582798   -0.890928   -1.784525
H        -3.911926   -0.366929   -2.410771
H        -5.419356    0.693592   -0.771647
H        -4.602534    1.230555    1.495142
C         2.315640    1.252500   -0.305968
C         3.371012    2.325422   -0.501791
H         1.691967    1.464373    0.565887
H         1.634578    1.194749   -1.157424
H         4.035355    2.379684    0.358405
H         2.896634    3.296845   -0.635035
H         3.984213    2.118368   -1.377589
