9
0 1
S         1.017843   -1.075695   -0.223857
O        -0.325080   -0.339867   -0.870348
C         2.029688    0.355384   -0.055071
S        -1.469712    0.227496    0.085136
F        -2.147576   -1.127860    0.427889
O        -0.924285    0.718462    1.285199
O        -2.346573    0.937425   -0.748043
O         1.788087    1.471962   -0.301122
F         3.204751   -0.079360    0.419275
