14
0 2
C         0.000000   -0.024825    0.077038
O         0.000000    0.265312    1.421247
C        -0.000002    1.374655   -0.577586
H         0.886999    1.933076   -0.285391
H        -0.887006    1.933073   -0.285392
C        -1.265512   -0.787511   -0.310214
H        -1.295220   -0.971899   -1.384710
H        -2.149660   -0.219690   -0.023982
H        -0.000002    1.244370   -1.659686
C         1.265515   -0.787506   -0.310214
H         2.149661   -0.219683   -0.023982
H         1.295223   -0.971895   -1.384710
H         1.294179   -1.749361    0.201868
H        -1.294173   -1.749366    0.201867
