28
0 1
C         3.339586    0.701396    0.498420
C         2.175373   -0.145647   -0.005948
H         4.228218    0.075221    0.589187
H         3.126649    1.128812    1.478932
H         3.569911    1.513366   -0.192307
C         1.840508   -1.248529    0.987660
H         2.683817   -1.936995    1.076364
H         0.976510   -1.821148    0.653882
H         1.623381   -0.838655    1.973286
C         2.485022   -0.735474   -1.375773
H         3.300635   -1.457845   -1.296244
H         2.778346    0.043853   -2.078150
H         1.613139   -1.248587   -1.779376
S         0.804775    1.044190   -0.148114
O        -0.395686    0.060614   -0.723628
Si        -1.891422   -0.062007    0.013207
C        -1.721022   -0.702356    1.753957
H        -1.302367   -1.708899    1.775214
H        -2.697885   -0.736472    2.240680
H        -1.075152   -0.055009    2.347866
C        -2.700098    1.615066    0.028840
H        -2.121225    2.324238    0.622785
H        -3.702036    1.562456    0.459179
H        -2.788545    2.016807   -0.981541
C        -2.819471   -1.259610   -1.062477
H        -2.315907   -2.226674   -1.095151
H        -2.897078   -0.886817   -2.084363
H        -3.830807   -1.420580   -0.684366
