22
0 1
O         0.847404    1.102879   -0.577164
S        -0.626996    1.546425    0.016708
C        -1.514581    0.028719   -0.230998
C         1.641633    0.299189    0.209773
O         1.349063   -0.028814    1.317097
O        -0.992285   -0.955481   -0.673352
C         2.866682   -0.064054   -0.520324
C         4.111755   -0.288118    0.299728
C         3.404586   -1.452487   -0.280774
H         4.016855   -0.123207    1.363021
H         5.044792    0.030148   -0.141624
H         3.835881   -1.955662   -1.133482
H         2.827456   -2.075361    0.386555
H         2.963839    0.359708   -1.507347
C        -2.929378    0.140406    0.176926
C        -3.931683   -0.695240   -0.576420
C        -3.556325   -1.078202    0.805174
H        -3.243878    1.112069    0.535482
H        -4.260489   -0.905221    1.605638
H        -2.905189   -1.931150    0.929975
H        -3.535266   -1.290884   -1.385908
H        -4.901652   -0.253198   -0.750797
