11
0 2
O         1.104682    1.178946    0.000000
C         0.856061   -0.040265   -0.000001
O         1.921694   -0.712228   -0.000002
C        -0.476633   -0.638826    0.000000
C        -1.571476    0.091570    0.739965
C        -1.571477    0.091571   -0.739963
H        -1.286630    1.003851    1.243923
H        -2.288025   -0.523219    1.264051
H        -2.288027   -0.523217   -1.264049
H        -1.286631    1.003853   -1.243920
H        -0.480546   -1.719308   -0.000001
