12
0 1
C        -0.493472   -0.608071   -0.809395
N        -1.702524   -0.057506   -0.131294
P         1.072146   -0.057715   -0.050932
H        -0.522618   -0.250686   -1.837646
H        -0.569763   -1.689798   -0.785712
O        -2.587615   -0.818684    0.151339
O        -1.718815    1.144256    0.084083
O         2.229999   -0.694454   -0.656244
O         1.024164    1.507434   -0.152877
H         0.135371    1.864010    0.024416
O         0.831326   -0.395158    1.483385
H         1.520860   -0.953975    1.860858
