12
0 2
C         1.278687   -1.312504    0.000007
C         0.609152    0.000000   -0.000005
H         0.980138   -1.901432    0.870617
H         2.358453   -1.188957   -0.000018
H         0.980098   -1.901469   -0.870564
C         1.278687    1.312504   -0.000012
H         0.980132    1.901448    0.870585
H         0.980103    1.901453   -0.870595
H         2.358453    1.188957   -0.000029
N        -0.802935    0.000000    0.000001
O        -1.375999    1.085585   -0.000006
O        -1.375999   -1.085586    0.000012
