7
0 1
C         1.181850    0.000000    0.026109
P        -0.660788    0.000000   -0.123777
H         1.536418    0.000000    1.053948
H         1.575885    0.878510   -0.483751
H         1.575885   -0.878510   -0.483751
H        -0.933731    1.030111    0.806780
H        -0.933731   -1.030111    0.806780
