7
0 2
C        -0.789682    0.000000   -0.017435
C         0.690311    0.000001   -0.001905
H        -1.345992   -0.924611    0.038201
H        -1.345995    0.924609    0.038202
H         1.101129   -0.884219   -0.491874
H         1.085958   -0.000038    1.023318
H         1.101128    0.884255   -0.491810
