13
0 1
N        -2.356822   -0.343535   -0.080492
P        -1.305360    1.136828   -0.412940
C         0.004060    0.748801    0.791681
P         0.925082   -0.801538    0.405437
H        -0.376835    0.680014    1.808196
H         0.741599    1.555574    0.753018
N         2.524159   -0.021967   -0.148268
O         2.837357    1.092068    0.213463
O         3.214055   -0.758464   -0.816300
O        -1.806231   -1.355487    0.317361
O        -3.529095   -0.248648   -0.345274
H        -2.132394    1.953419    0.385340
H         0.547395   -0.988404   -0.936767
