19
0 1
C         1.971829   -1.201463    0.037997
C         0.596666   -1.171079    0.026965
C         2.707377   -0.012970    0.013724
C         2.020850    1.200563   -0.018333
C         0.642562    1.223279   -0.029797
C        -0.088860    0.041057   -0.007974
H         0.113417    2.166373   -0.057406
H         2.493176   -2.150116    0.068409
H         0.044867   -2.101746    0.045359
P        -1.858150    0.124752   -0.016136
O        -2.414347    1.477368    0.027114
O        -2.390993   -0.804759    1.179513
N         4.083285   -0.041932    0.066977
H         4.535899   -0.900788   -0.192624
H         4.571842    0.786755   -0.223844
H         2.577896    2.129045   -0.032884
H        -2.627532   -0.278090    1.951193
O        -2.236582   -0.778867   -1.270197
H        -3.187481   -0.855449   -1.411940
