23
0 1
C         0.538184   -0.000004    0.704364
C         1.179204   -1.192827    0.386186
C         1.179202    1.192821    0.386192
C         2.413867    1.195371   -0.238986
C         3.035732    0.000001   -0.557657
C         2.413869   -1.195372   -0.238992
H         4.001934    0.000003   -1.044031
H         2.894612   -2.136048   -0.473806
H         0.705270   -2.133345    0.638275
H         0.705267    2.133337    0.638286
H         2.894608    2.136049   -0.473796
C        -0.812102   -0.000007    1.348020
P        -2.307372    0.000005    0.232650
H        -0.929075    0.873454    1.991941
H        -0.929079   -0.873478    1.991927
C        -1.930487   -1.400630   -0.893932
C        -1.930464    1.400636   -0.893929
H        -1.973962   -2.341162   -0.344363
H        -0.954687   -1.314315   -1.372210
H        -2.698886   -1.436576   -1.666506
H        -1.973923    2.341168   -0.344357
H        -2.698864    1.436597   -1.666501
H        -0.954667    1.314306   -1.372209
