16
0 1
C        -0.361211    0.005071   -0.009951
P         1.529067    0.000593   -0.137313
N        -0.978995    1.315517   -0.453307
N        -0.869281   -0.228328    1.404572
O        -0.545479    0.637447    2.174087
O        -0.253013    2.047867   -1.082677
O         1.977293    1.306932    0.587427
O        -2.120652    1.503806   -0.148082
O         1.880420   -0.225930   -1.523675
O        -1.517167   -1.211344    1.623434
N        -0.865304   -1.104115   -0.910508
O        -0.332836   -2.167205   -0.708069
O        -1.697748   -0.840662   -1.727916
H         1.926951    2.093496    0.026888
O         1.916349   -1.056517    0.951434
H         1.842047   -1.969484    0.639507
