7
0 2
C         0.789682    0.000000   -0.017435
C        -0.690311    0.000007   -0.001905
H         1.346011    0.924599    0.038204
H         1.345977   -0.924621    0.038199
H        -1.101123    0.884462   -0.491445
H        -1.085959   -0.000473    1.023318
H        -1.101134   -0.884012   -0.492239
