9
0 1
P         0.703501   -0.749365   -0.269712
C         1.845990    0.571109    0.252930
H         2.833225    0.117463    0.361254
H         1.559285    1.041402    1.189731
H         1.901971    1.325619   -0.528245
N        -0.895547    0.121714   -0.005842
O        -0.933028    1.320208   -0.181324
O        -1.847488   -0.580070    0.255769
H         0.590022   -1.443774    0.950697
