17
0 1
C        -0.633064   -0.266409    0.480814
P         1.931609   -0.232488   -0.534778
F         1.869038    1.359590   -0.547694
F         3.295614   -0.388737    0.276887
C        -1.181762    1.007855    0.564788
C        -1.417052   -1.298481   -0.020412
C        -2.486188    1.241696    0.167275
C        -3.260664    0.205241   -0.326277
C        -2.721639   -1.066326   -0.419938
H        -3.319198   -1.882614   -0.803476
H        -1.003241   -2.296906   -0.092872
H        -2.899411    2.238647    0.243610
H        -4.280941    0.387849   -0.635683
H        -0.578884    1.823434    0.942894
C         0.794791   -0.510103    0.874636
H         0.943952   -1.544609    1.191222
H         1.115196    0.143001    1.687931
