17
0 2
C         0.000000    1.454719   -0.164298
C         1.280457    0.770732    0.155475
C         1.257405   -0.707444   -0.241998
C         0.000000   -1.399504    0.269959
C        -1.257405   -0.707444   -0.241998
C        -1.280457    0.770732    0.155474
H         1.464619    0.827714    1.241420
H         2.121415    1.281972   -0.316085
H         2.150564   -1.208432    0.136320
H         1.287879   -0.784807   -1.332641
H         0.000000   -1.387590    1.365452
H         0.000000   -2.449273   -0.030184
H        -2.150564   -1.208432    0.136320
H        -1.287879   -0.784807   -1.332641
H        -2.121415    1.281972   -0.316085
H        -1.464619    0.827714    1.241420
H         0.000000    2.513221   -0.388988
