16
0 1
C        -0.744825    0.632321   -0.134980
P         0.905178   -0.010032    0.091910
O         1.256169   -0.577345    1.396425
O         1.816481    1.229373   -0.334892
C        -1.833944   -0.404701    0.123280
C        -3.228145    0.185024   -0.018163
H        -3.387807    0.582993   -1.021887
H        -3.384038    1.000072    0.690711
H        -3.993811   -0.568273    0.167409
H        -0.812729    1.031915   -1.149393
H        -0.843343    1.477621    0.549632
H        -1.703722   -0.817532    1.125168
H        -1.711539   -1.235234   -0.574294
O         1.049351   -1.056894   -1.107568
H         1.515957   -1.853086   -0.828986
H         2.608844    1.295064    0.210444
