21
0 1
C        -0.113617    0.132301   -0.504932
N        -0.261001    1.547430   -0.024267
P         1.574957   -0.432141   -0.073580
O        -0.003922    1.758821    1.150111
O        -0.648107    2.375855   -0.804301
O         2.612960    0.395589   -0.673305
O         1.557909   -1.946177   -0.543171
H        -0.179568    0.193994   -1.589066
C        -1.236476   -0.720757    0.074513
C        -2.627884   -0.271446   -0.348019
H        -1.153817   -0.728799    1.162036
H        -1.058059   -1.744065   -0.259891
C        -3.708143   -1.185139    0.208153
H        -2.685947   -0.247335   -1.439191
H        -2.807290    0.751678   -0.010270
H        -3.576060   -2.210598   -0.141063
H        -4.699449   -0.853518   -0.098988
H        -3.685847   -1.200691    1.299017
H         2.281851   -2.136515   -1.151841
O         1.555879   -0.599983    1.494752
H         1.285805    0.223363    1.931844
