9
0 2
P         0.000000    0.700829   -0.000001
C         1.392346   -0.500215    0.000000
H         1.354956   -1.142627   -0.882738
H         2.343266    0.030322   -0.000001
H         1.354957   -1.142623    0.882741
C        -1.392346   -0.500215    0.000001
H        -2.343266    0.030322    0.000001
H        -1.354956   -1.142623    0.882742
H        -1.354957   -1.142627   -0.882737
