20
0 1
C         0.165056   -0.022883    0.303504
C         1.008687   -1.045640    0.718911
C         2.361298   -1.018797    0.426982
C         2.895992    0.036761   -0.291053
C         2.066075    1.061278   -0.713610
C         0.714044    1.030144   -0.419866
P        -2.206749   -0.736022   -0.892702
H         2.999385   -1.825329    0.763485
H         3.953010    0.061594   -0.519675
H         2.473068    1.891134   -1.276361
H         0.080946    1.838850   -0.760391
H         0.597773   -1.876107    1.279943
C        -1.312370   -0.079987    0.611854
C        -1.874376    1.227422    1.158992
H        -1.453411   -0.857573    1.366377
H        -1.839645    2.022776    0.415023
H        -1.305806    1.557138    2.030636
H        -2.915307    1.103889    1.455898
H        -2.110202    0.438607   -1.676625
H        -3.525005   -0.444434   -0.462058
