8
0 2
C         1.861219    0.581057    0.327921
P         0.793363   -0.634339   -0.322391
H         1.858273    1.580460   -0.082395
H         2.644771    0.313463    1.022680
N        -0.879205    0.103856    0.011679
O        -1.010000    1.293154   -0.159427
O        -1.759079   -0.675746    0.295137
H         0.736273   -1.531441    0.760622
