10
0 1
P        -1.200559   -0.040598    0.000000
C         0.514553    0.652592   -0.000001
C         1.657125   -0.350337    0.000000
H         0.579838    1.309372    0.870450
H         0.579837    1.309371   -0.870452
H         1.613858   -0.993397    0.879722
H         2.626062    0.152767   -0.000001
H         1.613858   -0.993398   -0.879721
H        -1.017570   -0.994637    1.030452
H        -1.017571   -0.994638   -1.030451
