9
0 1
C        -1.428718   -0.946743    0.002724
C        -0.480578    0.221971    0.004342
H        -2.439532   -0.597864   -0.196281
H        -1.397839   -1.434599    0.978849
H        -1.130527   -1.687595   -0.740745
P         1.344819   -0.160721   -0.116911
O        -0.858001    1.362469    0.008113
H         1.362680   -1.238927    0.795761
H         1.752720    0.818677    0.808777
