19
0 1
C        -1.735377    1.849429    0.030168
C        -0.387846    1.543698    0.015412
C        -2.689966    0.848266    0.025657
C        -2.314004   -0.492058    0.004663
C        -0.955414   -0.801346   -0.010153
C        -0.006109    0.206681   -0.006487
H        -0.628684   -1.833498   -0.024769
H        -3.742161    1.105293    0.042391
H        -2.052783    2.883699    0.045224
H         0.355833    2.327732    0.019112
P         1.711676   -0.273281   -0.016611
O         1.953694   -1.715669    0.011475
O         2.421589    0.502222    1.192082
N        -3.263781   -1.499568    0.048613
H        -4.186824   -1.255889   -0.267631
H        -2.962377   -2.405568   -0.267799
H         2.550804   -0.075359    1.952834
O         2.270752    0.533677   -1.265663
H         3.201527    0.359925   -1.449210
