13
0 2
C         0.000004    0.000000   -0.157575
C        -0.964665   -1.117678    0.015496
H        -0.594702   -2.043527   -0.428898
H        -1.934610   -0.887089   -0.429013
C        -0.485610    1.394258    0.015539
H        -1.149847   -1.332129    1.079860
H        -0.578696    1.661846    1.079910
H         0.199022    2.118984   -0.428991
H        -1.472424    1.536775   -0.428806
C         1.450273   -0.276581    0.015523
H         1.735549   -1.231896   -0.428938
H         1.728589   -0.329668    1.079888
H         2.067106    0.506715   -0.428908
