14
0 1
C         0.707820   -0.948315   -0.182545
P        -0.770859    0.030030    0.099446
O        -1.074736    0.366889    1.490281
C         1.910561   -0.304228    0.431818
C         2.915239    0.205394   -0.257508
H         0.830342   -1.082092   -1.257662
H         0.517371   -1.927027    0.263175
H         1.915851   -0.251416    1.514829
H         2.933832    0.176040   -1.340379
H         3.758530    0.667930    0.236884
O        -1.859814   -0.836932   -0.668959
H        -2.764628   -0.623632   -0.412393
O        -0.612510    1.315036   -0.837150
H        -0.453642    2.112689   -0.320114
