17
0 2
C         1.249170    1.362174   -0.000001
C         2.391772    0.618938   -0.000002
C         2.326087   -0.787801   -0.000002
C         1.117682   -1.417616   -0.000002
C        -0.086876   -0.678574    0.000000
C        -0.017397    0.737822    0.000000
H         1.296978    2.443779    0.000000
H         3.356452    1.108831   -0.000003
H         3.240270   -1.366093   -0.000003
H         1.063429   -2.499082   -0.000002
C        -1.227606    1.485132    0.000002
C        -2.378532    0.792160    0.000002
C        -1.349403   -1.317658    0.000001
C        -2.508868   -0.591096    0.000002
H        -1.385553   -2.400403    0.000000
H        -3.475905   -1.075432    0.000002
H        -1.191839    2.567521    0.000002
