12
0 2
C         1.431693   -0.796220    0.236050
P         0.000000    0.081102   -0.503506
H         1.346811   -0.872535    1.320042
H         2.347242   -0.259783   -0.011200
H         1.504596   -1.795766   -0.191722
C        -1.431688   -0.796228    0.236049
H        -1.504585   -1.795775   -0.191722
H        -2.347240   -0.259796   -0.011202
H        -1.346807   -0.872541    1.320042
C        -0.000005    1.632836    0.291095
H         0.919244    2.198670    0.369589
H        -0.919259    2.198662    0.369594
