12
0 1
C        -0.482958    0.581958   -0.211674
P         1.156767   -0.206689    0.221580
N        -1.629669   -0.403433    0.098099
O         1.137762   -0.608301    1.616566
O         1.377365   -1.257045   -0.917224
O        -1.423053   -1.536142   -0.288551
O        -2.602578    0.009081    0.650758
F        -0.690912    1.681339    0.494410
F        -0.609901    0.866136   -1.511872
H         0.677482   -1.927355   -0.944193
O         2.187090    0.899977   -0.208960
H         2.571074    1.372152    0.540289
