8
0 2
C        -1.218293   -0.195718    0.000000
C         0.000000    0.442967    0.000000
C         1.218293   -0.195718    0.000001
H        -2.145972    0.357533   -0.000001
H        -1.278960   -1.276405    0.000001
H         0.000000    1.528563   -0.000001
H         1.278959   -1.276406    0.000002
H         2.145972    0.357533    0.000000
