16
0 1
P         1.933124   -0.002422   -0.185338
C         0.293550   -0.712925    0.316847
H         0.309607   -1.755918   -0.007906
H         0.182186   -0.720176    1.402629
C        -0.900799   -0.006631   -0.325575
C        -2.188143   -0.762760   -0.021271
H        -2.381590   -0.779653    1.053958
H        -2.133019   -1.796206   -0.366383
C        -1.009324    1.445430    0.122456
H        -3.044835   -0.291674   -0.505341
H        -0.749250   -0.015438   -1.410032
H        -1.879297    1.926967   -0.325397
H        -1.115963    1.506678    1.208478
H        -0.130808    2.026564   -0.159962
H         2.746480   -0.881164    0.567097
H         2.027925    1.037665    0.768184
