14
0 1
P         0.640432    0.000525    0.092370
O         0.657613   -0.230083    1.538546
O         1.312415    1.345547   -0.423366
C        -0.959755    0.092431   -0.648173
C        -2.076860    0.717079    0.141518
C        -2.055602   -0.756647   -0.060659
H        -2.792663    1.307376   -0.411570
H        -1.839440    1.086951    1.128573
H        -0.960586    0.237884   -1.720014
H        -1.806628   -1.369955    0.793605
H        -2.756036   -1.196801   -0.755225
H         2.159868    1.537717   -0.005638
O         1.447473   -1.119092   -0.719674
H         1.602317   -1.899191   -0.175446
