15
0 2
C         0.614316   -0.896690   -0.144940
N         1.581101    0.117486   -0.007565
O         1.265446    1.267458   -0.285192
O         2.691058   -0.224821    0.386916
H         0.971193   -1.867829    0.159477
C        -0.747925   -0.578207   -0.584421
C        -1.630622   -0.027440    0.552545
H        -1.203217   -1.484360   -0.987962
H        -0.701448    0.169443   -1.378526
C        -3.031510    0.296828    0.063042
H        -1.156588    0.867364    0.956414
H        -1.675472   -0.760646    1.360503
H        -3.005808    1.051157   -0.724654
H        -3.647176    0.683563    0.874804
H        -3.526779   -0.589136   -0.338246
