16
0 2
C         0.000005   -0.000297    0.053308
C        -0.000324    1.292399   -0.782719
H         0.882144    1.896343   -0.568650
H        -0.883045    1.895943   -0.568570
C        -1.251225   -0.812476   -0.286792
H        -2.156574   -0.251008   -0.049901
H        -1.275942   -1.745666    0.277212
H        -1.276378   -1.057235   -1.350187
H        -0.000319    1.055351   -1.849228
C         1.251570   -0.811914   -0.286887
H         1.276744   -1.056680   -1.350280
H         1.276756   -1.745085    0.277128
H         2.156685   -0.250033   -0.050083
C        -0.000024    0.353011    1.502678
H        -0.927311    0.566842    2.017493
H         0.927225    0.566889    2.017539
