18
0 1
C         0.689356    0.933171    1.690238
C         0.504437    0.593208    0.213507
H         0.577903    0.057260    2.324155
H        -0.064615    1.664521    1.975365
H         1.675823    1.368472    1.848391
C         0.725830    1.799743   -0.677046
H         0.674527    1.534345   -1.730308
H         1.698623    2.244098   -0.479990
H        -0.051736    2.529821   -0.460784
P        -1.193339   -0.071115   -0.063347
N         1.527188   -0.489212   -0.119342
O         1.336396   -1.600996    0.351581
O         2.477786   -0.196907   -0.791395
O        -2.224506    0.940661    0.120268
O        -1.329911   -1.318703    0.883756
O        -1.070256   -0.648943   -1.542229
H        -1.815742   -0.406610   -2.103892
H        -0.518821   -1.858319    0.876626
