17
0 1
C        -0.007562    0.050705    0.474595
C         0.630506   -1.170486    0.290524
C         1.948386   -1.225579   -0.126543
C         2.650930   -0.057088   -0.370663
C         2.024903    1.164758   -0.193946
C         0.705994    1.215886    0.223771
P        -2.573918   -0.146743   -0.566187
H         2.429578   -2.185447   -0.260537
H         3.681949   -0.099170   -0.695312
H         2.565682    2.083447   -0.379626
H         0.222401    2.175395    0.361854
H         0.086024   -2.088360    0.475843
C        -1.446314    0.112764    0.896431
H        -1.660333    1.060142    1.386537
H        -1.666781   -0.685655    1.606147
H        -2.319027    1.088597   -1.205990
H        -3.771776    0.306436    0.038873
