17
0 1
C        -2.578424    0.250763    1.057089
P        -1.904363   -0.263756   -0.582935
H        -2.375277   -0.536946    1.781844
H        -3.659960    0.363351    0.979350
H        -2.145343    1.181193    1.420431
C        -0.109688   -0.078543   -0.277812
C         0.532203    1.156587   -0.247262
C         0.645897   -1.225060   -0.056385
C         2.003495   -1.141567    0.205857
C         2.628269    0.092771    0.233410
C         1.890168    1.242621    0.002010
H         3.690140    0.160089    0.429769
H         2.374903    2.210057    0.016624
H        -0.036605    2.061272   -0.422053
H         0.165772   -2.195114   -0.096440
H         2.575239   -2.043693    0.379438
H        -2.094932    0.970713   -1.246372
