17
0 1
C        -0.411113    0.072063    0.440549
N        -0.862800    1.369577   -0.203593
P         1.350572   -0.355325   -0.025323
N        -1.310956   -1.010120   -0.145122
C        -0.587022    0.188231    1.934954
O        -1.084410   -1.316986   -1.297297
O         1.635009   -1.682917    0.482746
O        -1.954326    1.415874   -0.697306
O         2.205600    0.804955    0.585727
O        -0.076864    2.291969   -0.123297
O        -2.157712   -1.482569    0.556911
H         0.038913    0.996034    2.305934
H        -0.271808   -0.743096    2.398937
H        -1.628359    0.378338    2.182814
O         1.434465   -0.079384   -1.573192
H         0.866798   -0.673528   -2.087034
H         1.926872    1.686624    0.292845
