9
0 2
C        -0.591813   -0.699436   -0.000002
N         0.610740    0.031375   -0.000001
O         0.545299    1.252969    0.000003
O         1.653105   -0.615479   -0.000001
H        -0.448580   -1.767729   -0.000003
C        -1.875019    0.004919    0.000000
H        -1.957063    0.659863   -0.871988
H        -1.957064    0.659856    0.871993
H        -2.698717   -0.704433   -0.000003
