12
0 1
C         0.036356    0.585989   -0.029898
C        -1.047334   -0.478368   -0.004482
P         1.731431   -0.162905   -0.083757
H        -0.072266    1.253276    0.826131
H        -0.086216    1.189791   -0.930529
N        -2.365422    0.138857   -0.064404
H        -0.905870   -1.117912    0.878527
H        -0.938933   -1.123978   -0.878431
H        -2.543755    0.693191    0.763427
H        -3.094861   -0.558751   -0.126456
H         1.826725   -0.539456    1.277713
H         2.467537    1.029687    0.103082
