19
0 1
C        -0.992190    0.000000   -0.010179
P         0.813581    0.000000   -0.104531
O         1.423623   -0.000010   -1.437929
C        -1.498331    1.253173   -0.729759
H        -1.154781    1.283178   -1.763407
H        -1.166069    2.161818   -0.228639
C        -1.457168    0.000010    1.447401
H        -1.105901    0.883408    1.979013
H        -1.105898   -0.883377    1.979027
H        -2.548504    0.000009    1.472952
H        -2.589575    1.248623   -0.732287
C        -1.498329   -1.253186   -0.729740
H        -2.589572   -1.248638   -0.732268
H        -1.166066   -2.161823   -0.228605
H        -1.154778   -1.283207   -1.763387
O         1.234419   -1.263529    0.780084
H         1.956940   -1.753042    0.370734
O         1.234414    1.263543    0.780066
H         1.956951    1.753039    0.370723
