13
0 1
P        -1.396096   -0.116936   -0.000539
C         0.416091    0.011034   -0.396674
C         1.088106    1.275542    0.118294
H         1.048364    1.317118    1.208531
C         1.128221   -1.242270    0.104189
H         1.092496   -1.300138    1.194457
H         2.179240   -1.229565   -0.189499
H         0.677250   -2.151605   -0.293460
H         0.605869    2.173736   -0.266597
H         2.139782    1.303787   -0.177655
H         0.458700    0.011150   -1.490249
H        -1.760116    1.213195   -0.319603
H        -1.294642    0.150528    1.387312
