19
0 1
C         0.612070    0.719572   -0.398809
P        -0.780929   -0.354453   -0.024057
O        -0.656542   -1.795357   -0.266403
O        -1.975406    0.310575   -0.853310
C         1.892738    0.264610    0.312773
C         2.504058   -1.018346   -0.230890
H         1.691143    0.165509    1.382351
H         2.616557    1.078000    0.219382
H         2.762395   -0.906663   -1.285762
H         1.815871   -1.857319   -0.146029
C         0.283417    2.180357   -0.087169
H         0.752324    0.610511   -1.478975
H         1.104334    2.816201   -0.419423
H         0.155324    2.327274    0.985038
H        -0.626211    2.508605   -0.586759
H         3.418526   -1.264496    0.309300
H        -2.533711   -0.362876   -1.258668
O        -1.095789   -0.001893    1.503258
H        -1.374407   -0.781702    1.996606
