12
0 1
P         0.740516   -0.766306   -0.273331
C         2.003747    0.441390    0.277894
H         1.766340    0.895638    1.236793
H         2.064603    1.228667   -0.471096
H         2.972226   -0.053627    0.333923
C        -0.795628    0.258390   -0.050408
C        -2.081989   -0.483322    0.201000
H        -2.128579   -1.403314   -0.382449
H        -2.927914    0.158687   -0.035055
H        -2.128766   -0.760440    1.256235
O        -0.757067    1.456909   -0.164649
H         0.574107   -1.525041    0.907878
