22
0 1
C         1.564630   -0.042894   -0.046303
P        -1.289685   -0.063149    0.042957
O        -1.416228   -0.121409    1.502186
C         2.715028   -0.349843   -1.005105
H         2.611852    0.207820   -1.937795
H         2.750214   -1.413043   -1.249298
C         1.783366   -0.801338    1.262714
H         1.862301   -1.874953    1.080309
H         0.962290   -0.634946    1.958165
H         2.710987   -0.474958    1.735665
H         3.670640   -0.078063   -0.554365
C         1.533907    1.459960    0.230814
H         2.506584    1.790157    0.597764
H         0.795575    1.708133    0.993795
H         1.301695    2.028367   -0.670898
C         0.264919   -0.521462   -0.723445
H         0.266495   -1.611283   -0.783586
H         0.212730   -0.150462   -1.749869
O        -2.290029   -1.014325   -0.754874
H        -3.134484   -1.129594   -0.303877
O        -1.610407    1.398282   -0.529553
H        -1.809381    2.013129    0.185516
