11
0 2
C        -1.204538   -0.626725    0.000000
C        -1.217311    0.765834    0.000001
C         0.000000   -1.313034    0.000000
C         1.204539   -0.626724    0.000000
C         1.217311    0.765834    0.000000
C         0.000000    1.385661    0.000000
H         2.148829    1.316161    0.000000
H         0.000000   -2.394748    0.000000
H         2.140178   -1.171327   -0.000001
H        -2.140178   -1.171327    0.000000
H        -2.148830    1.316161    0.000001
