13
0 2
C         0.000007   -0.000001   -0.157568
C        -0.380546   -1.426518    0.015515
H        -1.353978   -1.642074   -0.428919
H        -0.453576   -1.700287    1.079883
H         0.356158   -2.098297   -0.428934
C        -1.045128    1.042820    0.015531
H        -1.995297    0.740636   -0.428786
H        -0.745171    1.993586   -0.429022
H        -1.245613    1.243045    1.079899
C         1.425675    0.383699    0.015503
H         2.099068   -0.351486   -0.429019
H         1.699302    0.457243    1.079871
H         1.639059    1.357640   -0.428859
