15
0 1
C         2.477860    0.133574    0.844603
C         1.960177   -0.329750   -0.508833
H         1.893443    0.972203    1.222019
H         3.516138    0.457951    0.775915
H         2.430352   -0.672198    1.580234
C         0.521318   -0.818650   -0.458679
H         2.587628   -1.139554   -0.886384
H         2.028640    0.486658   -1.228513
C        -0.496854    0.278512   -0.241927
H         0.386590   -1.579435    0.316715
H         0.240485   -1.304816   -1.398954
O        -0.248088    1.443487   -0.401992
P        -2.175774   -0.238450    0.392174
H        -2.323643   -1.391649   -0.410272
H        -2.913326    0.617581   -0.448414
