19
0 1
C        -0.180220    0.776024   -0.103781
P         1.387307   -0.053441    0.096834
O         1.641077   -0.763925    1.352892
O         2.431143    1.116258   -0.203682
C        -1.375274   -0.160155    0.040763
H        -0.210244    1.564597    0.651173
C        -2.703888    0.573201   -0.068915
H        -1.317535   -0.672656    1.003850
H        -1.323413   -0.935284   -0.727530
C        -3.898311   -0.356809    0.069181
H        -2.750572    1.093010   -1.030168
H        -2.750631    1.349194    0.700350
H        -3.891039   -1.122827   -0.708386
H        -4.839110    0.188211   -0.009990
H        -3.888677   -0.866431    1.034276
H        -0.177588    1.266090   -1.079944
H         3.220478    1.042136    0.344962
O         1.459213   -1.005398   -1.185813
H         1.813424   -1.873470   -0.961770
