16
0 1
C         1.076820   -0.000004   -0.438729
P        -0.639946   -0.000013    0.089907
O        -0.917895    0.000021    1.529257
O        -1.249522   -1.263561   -0.674858
C         1.780415   -1.264695    0.048587
H         1.304925   -2.164737   -0.337804
H         1.773782   -1.313974    1.137909
C         1.780365    1.264745    0.048511
H         1.049206   -0.000035   -1.532115
H         1.773729    1.314092    1.137830
H         1.304846    2.164746   -0.337940
H         2.819106    1.260083   -0.282701
H         2.819155   -1.260014   -0.282629
O        -1.249631    1.263487   -0.674869
H        -1.867238    1.751858   -0.118695
H        -1.867536   -1.751670   -0.118905
