7
0 1
C        -0.836189    0.000000    0.006674
P         0.958779    0.000000   -0.606334
F        -1.465196   -1.083718   -0.468178
F        -0.950133    0.000000    1.332257
F        -1.465196    1.083718   -0.468178
F         1.420009    1.200856    0.305103
F         1.420009   -1.200856    0.305103
