12
0 2
C         2.251358   -0.099444    0.000001
C         0.776253   -0.466385   -0.000001
H         2.513015    0.489329   -0.881145
H         2.877563   -0.991597   -0.000001
H         2.513014    0.489325    0.881150
C        -0.117769    0.767403    0.000002
H         0.539035   -1.077527    0.872357
H         0.539036   -1.077523   -0.872361
C        -1.593946    0.465939    0.000000
H         0.068577    1.403525   -0.869414
H         0.068576    1.403520    0.869421
O        -2.126774   -0.580516   -0.000002
