13
0 2
C        -0.000008   -0.000004   -0.157554
C         0.682220   -1.309328    0.015549
H         1.679252   -1.307594   -0.428838
H         0.109614   -2.125485   -0.428934
C        -1.475030    0.063850    0.015509
H        -1.972057   -0.800436   -0.428934
H        -1.895493    0.967855   -0.428947
H        -1.758137    0.076119    1.079869
H         0.813091   -1.560624    1.079920
C         0.792812    1.245479    0.015488
H         0.945007    1.484517    1.079845
H         0.292836    2.108062   -0.428956
H         1.785926    1.157596   -0.428983
