10
0 2
C         1.168431   -0.805837    0.000000
C         1.202631    0.583710    0.000000
C         0.000000    1.273010    0.000000
N        -1.189589    0.686203    0.000000
C        -1.240127   -0.647504    0.000000
C        -0.075317   -1.366356    0.000000
H         2.142489    1.119786    0.000000
H        -0.005190    2.357034    0.000000
H         2.076347   -1.395082    0.000000
H        -2.220232   -1.107300    0.000000
