23
0 1
C         0.310104    0.131056    0.123523
C         0.929571   -1.096949    0.354694
C         2.297556   -1.246447    0.232376
C         3.088277   -0.167214   -0.127622
C         2.490678    1.055573   -0.364367
C         1.117073    1.201563   -0.241811
P        -1.966478   -0.940949   -0.961547
H         2.748402   -2.212625    0.417219
H         4.159661   -0.281572   -0.223839
H         3.093172    1.908717   -0.647723
H         0.681812    2.170598   -0.433807
H         0.330900   -1.956395    0.624607
C        -1.201365    0.261120    0.268320
C        -1.699518    1.683853    0.034220
H        -1.472814    2.039616   -0.969945
H        -1.254169    2.376456    0.752542
H        -2.780430    1.724207    0.162519
C        -1.639525   -0.180731    1.671538
H        -1.192606    0.472961    2.422640
H        -1.339906   -1.202502    1.895782
H        -2.724385   -0.119210    1.772579
H        -1.625249   -0.234088   -2.137988
H        -3.284327   -0.422862   -0.916614
