15
0 1
C        -0.504959    0.529906   -0.561529
P         1.054097   -0.125941    0.160912
N        -1.647481   -0.331367   -0.075612
O         1.087708    0.004531    1.611901
O         2.161473    0.699714   -0.616750
O        -2.611753    0.200426    0.399641
O        -1.519763   -1.538200   -0.217128
H        -0.476673    0.345683   -1.636209
C        -0.726165    1.988714   -0.240876
H        -0.740666    2.150660    0.834587
H        -1.665184    2.339689   -0.661034
H         0.087007    2.568400   -0.674649
H         2.721662    1.202326   -0.013314
O         1.229081   -1.547252   -0.489460
H         0.407538   -2.063552   -0.424972
