19
0 2
Cl        -2.774179   -1.602529   -1.022069
Cl        -2.686903    0.987083    0.857136
O         1.384793    2.911633   -0.724217
C         1.696727    1.572492   -1.126164
H         2.740079    1.321800   -0.944712
H         1.456969    1.396920   -2.178633
C         0.659349    0.986153   -0.143861
P        -1.573380   -0.689653    0.377075
C        -0.372912    0.069035   -0.787936
H         0.129457   -0.786584   -1.249137
H        -0.911645    0.591745   -1.577816
C         0.251565    2.465790    0.030453
H        -0.688942    2.733800   -0.454081
H         0.256665    2.853551    1.050485
C         1.291660    0.421019    1.132506
P         1.794794   -1.347635    1.192969
Cl         3.033477   -1.471368   -0.447132
H         0.581380    0.500850    1.964309
H         2.147463    1.043091    1.407764
