19
0 1
C        -0.817528   -0.468039   -0.312716
C        -1.773661   -0.080269   -1.242491
H        -1.490557    0.064088   -2.277126
C        -3.085586    0.124987   -0.848241
H        -3.825472    0.428555   -1.576374
C        -3.445982   -0.066078    0.473017
H        -4.471029    0.090331    0.781710
C        -2.496105   -0.460935    1.403989
H        -2.778618   -0.609453    2.437466
C        -1.186377   -0.658563    1.015386
H        -0.447760   -0.968845    1.742793
P         0.888354   -0.677591   -0.916602
Cl         1.500872   -2.387697    0.029170
C         1.715562    0.551685    0.240817
O         2.567118    0.283543    1.034690
C         1.307668    2.024002    0.073551
F         0.738882    2.221252   -1.142768
F         0.390015    2.333762    1.016778
H         2.168344    2.685825    0.181173
