8
0 1
Cl        -2.993040    0.000000    0.245568
P        -1.190205    0.000000   -0.699923
C         0.000001   -1.247688    0.000014
O        -0.000005   -2.433313    0.000025
C         0.000000    1.247688    0.000014
P         1.190220    0.000000    0.699931
O        -0.000006    2.433313    0.000025
Cl         2.993031    0.000000   -0.245609
