19
0 2
Cl         2.956101   -0.906349   -0.092193
O         1.851477    2.249218   -0.280605
O         0.210462   -1.725497    1.410932
P         1.130660   -0.349305   -0.778733
P        -0.656451    1.804519    0.587359
C         0.988119    1.422417   -0.180082
C        -0.003279   -0.852092    0.625848
C        -1.235458    0.035596    0.636311
H        -1.748099   -0.138266    1.586258
C        -2.218728   -0.313872   -0.514622
H        -1.736206   -0.067068   -1.465143
C        -2.539295   -1.803407   -0.515558
H        -3.255439   -2.031616   -1.305022
H        -2.977972   -2.104933    0.437416
H        -1.654855   -2.417740   -0.680673
C        -3.493324    0.511499   -0.397477
H        -4.178671    0.266292   -1.208572
H        -4.002214    0.299574    0.545114
H        -3.297107    1.582864   -0.440631
