17
0 2
Cl        -1.584963    1.671010    0.110393
N         0.136207   -1.137505   -0.332005
N        -1.601601   -1.361715    1.449407
P        -2.330556   -0.041257   -0.786181
C        -1.270376   -1.322556    0.061681
N         0.870210   -0.799871    0.585992
N         2.703933   -0.952812   -1.105091
P         2.491636    1.327167    0.372504
C         2.259848   -0.524763    0.182787
H         2.767327   -1.961665   -1.164537
H         2.068972   -0.639749   -1.827928
H        -1.291022   -0.516982    1.913187
H        -1.147960   -2.139604    1.910752
H         1.664914    1.619258   -0.744113
H         2.876632   -0.988786    0.953625
H        -1.526540    0.033734   -1.947677
H        -1.582225   -2.254798   -0.419762
