17
0 1
Cl        -2.844087   -0.619501   -0.233182
O         2.332744   -2.235774    0.188901
P        -1.470578    0.705500    0.597697
N         0.466166   -1.047162   -0.410761
N         1.106460    1.056487    0.166905
C         0.015939    0.313090   -0.453196
C         1.744142   -1.198626    0.021650
C         2.281955    0.203737    0.222320
C         1.321504    2.380319   -0.369471
H        -0.140591   -1.831588   -0.581529
H         2.809350    0.279808    1.172359
H         2.996542    0.416614   -0.584955
H         2.047995    2.909659    0.245262
H         1.692827    2.355555   -1.404632
H         0.391969    2.947918   -0.347988
H        -1.057422   -0.133628    1.654232
H        -0.184089    0.634478   -1.486127
