14
0 1
Cl         2.076738   -0.869778    1.149290
Cl        -2.902044    0.286264   -0.186153
O        -0.947036   -2.291122   -0.861035
O        -0.165922    2.332994    0.799534
P         1.364718   -0.823033   -0.804638
P        -1.201088   -0.168355    0.873871
C        -0.411274   -1.351260   -0.366280
C        -0.114936    1.263082    0.272304
C         0.829699    0.946128   -0.879801
H         0.196439    0.956996   -1.779670
C         1.957482    1.953474   -1.022800
H         2.613166    1.920763   -0.153440
H         1.553912    2.960996   -1.094291
H         2.550082    1.748288   -1.912949
