21
0 2
C         1.564129    2.366108    0.000003
H         2.568904    2.784382   -0.000001
H         1.039175    2.748757    0.876015
H         1.039167    2.748763   -0.876001
O        -2.344062   -1.551050    0.000028
P        -1.106057    0.931081    0.000002
C        -3.832545    0.292575    0.000001
H        -4.595590   -0.482111   -0.000007
H        -3.949039    0.931472   -0.877156
H        -3.949052    0.931465    0.877162
C         0.457273    0.059932   -0.000002
C        -2.465034   -0.349715    0.000011
C         1.624873    0.864157   -0.000003
C         0.598741   -1.336692   -0.000008
H        -0.287049   -1.950184   -0.000007
C         2.982415   -1.136198   -0.000014
H         3.964363   -1.590996   -0.000019
C         2.862425    0.243784   -0.000009
H         3.754781    0.856856   -0.000010
C         1.845808   -1.925910   -0.000014
H         1.929180   -3.004455   -0.000018
