14
0 1
Cl        -2.458882   -0.806437   -0.720415
P        -1.363167   -0.013501    0.824907
N        -1.196653    1.664111    0.210765
N        -0.040874    1.954853   -0.121427
C         0.337749   -0.346136    0.334372
C         0.883834    0.867163   -0.068725
C         2.213851    0.995892   -0.409891
H         2.605317    1.957124   -0.712614
C         3.009808   -0.136579   -0.351467
H         4.055663   -0.072191   -0.619058
C         2.477994   -1.355537    0.049160
H         3.114713   -2.229248    0.084521
C         1.142197   -1.467408    0.407925
H         0.742898   -2.420852    0.726992
