18
0 2
C        -0.502680    0.493069   -0.447798
C         0.949996    0.197593   -0.186142
C         1.847549    0.178022   -1.244688
H         1.488143    0.337162   -2.253540
C         3.193607   -0.048888   -1.019149
H         3.883302   -0.061939   -1.852403
C         3.653241   -0.268611    0.267834
H         4.704366   -0.452561    0.445038
C         2.760533   -0.257947    1.327823
H         3.113405   -0.435803    2.334860
C         1.417686   -0.019610    1.105348
H         0.720339   -0.018790    1.931724
N        -1.355571   -0.404136    0.349762
P        -0.819703    2.286064   -0.016069
Cl        -1.121358   -2.057498   -0.181310
Cl        -3.029325    0.003983    0.092996
H        -0.769033    2.062932    1.383107
H        -0.713982    0.374979   -1.514101
