19
0 1
C         0.265498   -0.047512   -0.257576
C        -1.223931   -0.196295   -0.116953
C        -1.987328   -0.601502   -1.203138
H        -1.511227   -0.758804   -2.162667
C        -3.349044   -0.796125   -1.065735
H        -3.936595   -1.106233   -1.919387
C        -3.960324   -0.586871    0.160273
H        -5.026447   -0.735615    0.266662
C        -3.204087   -0.180330    1.245732
H        -3.677292   -0.009809    2.203348
C        -1.840039    0.013343    1.110652
H        -1.251084    0.350010    1.953121
N         0.680301    1.223642    0.362563
P         1.028523   -1.476687    0.698875
Cl         0.013869    2.550498   -0.553073
Cl         2.410326    1.374920    0.356125
Cl         2.651517   -2.000055   -0.474229
H         0.153668   -2.413684    0.113968
H         0.567432   -0.100462   -1.305627
