16
0 2
Cl        -1.863280    1.930182   -0.191014
S        -0.737023   -1.027370    0.410568
O        -0.783281   -2.353529   -0.150814
O        -1.126673   -0.779240    1.770197
P        -2.034735    0.063699   -0.962757
C         1.643506   -0.825604   -0.891226
C         2.899388   -0.285240   -1.093940
C         3.373748    0.702963   -0.245120
C         2.600732    1.152492    0.813481
C         1.342781    0.619560    1.027602
C         0.878799   -0.364852    0.169786
H         1.259560   -1.608668   -1.529733
H         3.512066   -0.639529   -1.911458
H         4.357507    1.122760   -0.407549
H         2.980259    1.917547    1.476720
H         0.725658    0.943482    1.852961
