21
0 2
H        -0.757592   -2.481786    0.007125
H        -3.139139   -1.923923   -0.002096
P         1.596894   -1.055438    0.003267
C         2.717474    0.430581    0.005636
C        -0.078592   -0.439976    0.000011
C        -2.826323    0.195515   -0.009068
C         4.179604    0.052368   -0.011716
H         4.407377   -0.524111   -0.910185
H         4.416834   -0.582578    0.843616
C        -1.061416   -1.441758    0.002942
O         2.373165    1.588993    0.020514
C        -4.282833    0.546893    0.008448
C        -2.404267   -1.128639   -0.002023
H         0.222305    1.687046   -0.014321
H        -2.164040    2.232061   -0.025338
H         4.787295    0.953797    0.013804
C        -0.509465    0.895774   -0.009844
C        -1.854508    1.193776   -0.014964
H        -4.902968   -0.313707   -0.237205
H        -4.504606    1.343600   -0.701958
H        -4.582246    0.902029    0.996908
