18
0 1
F         1.519929   -1.531434    0.559056
N         0.341959    1.018327   -0.507400
N         2.276780    1.323616    1.039367
P         2.353022   -0.795163   -0.605626
C         1.789019    0.944954   -0.252047
F        -1.519945   -1.531433   -0.559061
N        -0.341956    1.018333    0.507396
N        -2.276780    1.323613   -1.039370
P        -2.353016   -0.795159    0.605634
C        -1.789017    0.944957    0.252045
H        -2.108224    2.304456   -1.221646
H        -1.804286    0.797052   -1.763204
H         1.804286    0.797057    1.763203
H         2.108223    2.304460    1.221639
H        -1.422496   -1.010163    1.654821
H        -2.262266    1.555616    1.025237
H         1.422519   -1.010167   -1.654828
H         2.262269    1.555610   -1.025241
