21
0 2
C         1.594129    2.344005   -0.176979
H         2.605338    2.739888   -0.249672
H         1.109999    2.810992    0.681755
H         1.042947    2.660764   -1.063089
O        -2.282864   -1.389950   -0.649322
P        -1.105891    0.971644    0.121293
C        -3.801092    0.161500    0.308766
H        -4.562058   -0.519788   -0.065019
H        -3.995898    1.176650   -0.039066
H        -3.836536    0.184312    1.400255
C         0.443778    0.075768    0.054303
C        -2.437696   -0.309298   -0.134252
C         1.626252    0.846802   -0.050853
C         0.553819   -1.317700    0.169713
H        -0.340691   -1.914406    0.236518
C         2.938710   -1.179403    0.070311
H         3.909373   -1.657698    0.074056
C         2.849652    0.197830   -0.043639
H         3.754583    0.785983   -0.129173
C         1.785684   -1.937504    0.179126
H         1.844810   -3.013763    0.269649
