16
0 1
F         3.189905    0.418969    0.008292
P         1.805407    0.210624   -0.799213
C         0.788812   -0.158709    0.727287
N         1.018009   -1.470681    1.288765
H         1.972315   -1.772731    1.160902
H         0.788701   -1.515631    2.272729
C        -0.696334   -0.032784    0.478570
F        -1.408953   -0.247325    1.581598
N        -1.101828    1.365678   -0.010981
O        -1.813181    1.441178   -0.975459
O        -0.681257    2.268235    0.666690
N        -1.161375   -1.017811   -0.588960
O        -2.160714   -1.637533   -0.388960
O        -0.441253   -1.064371   -1.561040
H         2.029871   -1.140113   -1.140016
H         1.032178    0.672896    1.398826
