19
0 2
S         0.855371    0.000001   -0.615407
O         1.163083    1.247755   -1.270696
O         1.163075   -1.247737   -1.270730
P         1.829916   -0.000032    1.322450
C        -0.867234    0.000001   -0.215514
C        -1.523316   -1.208852   -0.052860
H        -0.986285   -2.134047   -0.206746
C        -2.864887   -1.202912    0.283596
H        -3.392440   -2.138701    0.407860
C        -3.531625    0.000003    0.453551
H        -4.581366    0.000004    0.715333
C        -2.864882    1.202917    0.283611
H        -3.392431    2.138708    0.407886
C        -1.523311    1.208856   -0.052845
H        -0.986275    2.134051   -0.206719
C         3.512847    0.000021    0.605455
H         3.666477    0.885306   -0.012865
H         3.666515   -0.885230   -0.012903
H         4.236320    0.000018    1.419363
