20
0 1
F        -1.796632    2.120346   -0.373956
S        -1.440174   -0.676929    0.376977
O        -1.765473   -1.925675   -0.265005
O        -1.811273   -0.416366    1.740222
P        -2.479695    0.764356   -0.873695
C         0.287540   -0.380331    0.211927
C         1.002720   -1.038898   -0.775811
C         2.353346   -0.787455   -0.906555
C         2.998625    0.119847   -0.070997
C         2.257857    0.764203    0.913067
C         0.905781    0.521462    1.061623
C         4.459606    0.408271   -0.243685
H         0.502247   -1.754587   -1.413021
H         2.921529   -1.309629   -1.665817
H         2.749203    1.461931    1.578864
H         0.332440    1.009041    1.836982
H         5.003752   -0.480484   -0.560873
H         4.904363    0.772314    0.681044
H         4.610643    1.174680   -1.006854
H        -1.595161    0.502871   -1.950089
