18
0 1
C        -1.065220    0.133271    0.719136
C         0.999483    0.110167    0.176427
C         2.750116   -1.529548    0.090671
C         3.242825    0.825354   -0.469167
H         3.804995    0.525090   -1.354595
H         2.747726    1.769433   -0.666351
H         3.462143   -1.797661   -0.689926
H         1.917710   -2.226482    0.077589
N         0.100553   -0.679800    0.652272
N        -0.681459    1.472921    0.306100
N         0.514035    1.455983   -0.024345
P        -2.237982   -0.581280   -0.551557
N         2.262128   -0.190682   -0.150111
F        -3.615603    0.116406   -0.110281
H         3.947636    0.959921    0.356777
H         3.251268   -1.603379    1.060765
H        -2.400522   -1.773182    0.195724
H        -1.550832    0.173392    1.696078
