8
0 1
S        -0.738356    0.054532    0.097061
F         2.027989   -0.752152    0.019116
O        -0.880621   -0.976848   -1.111293
O        -1.464232    1.224363   -0.265756
O        -1.007417   -0.668277    1.299222
P         1.334240    0.683091    0.065917
H        -0.881738   -1.879485   -0.759345
H         1.248090    0.896074   -1.331812
