19
0 1
C        -0.682767   -0.248613   -0.400367
C        -1.470944    0.759905   -0.939848
H        -1.078959    1.384336   -1.732291
C        -2.753878    0.969780   -0.463672
H        -3.362115    1.758815   -0.885056
C        -3.260162    0.161754    0.539682
H        -4.265945    0.319998    0.905593
C        -2.481714   -0.854685    1.072075
H        -2.878288   -1.488799    1.853750
C        -1.194708   -1.057167    0.610105
H        -0.585301   -1.848573    1.026528
P         1.004220   -0.489648   -1.046812
F         1.179475   -2.057812   -0.794751
C         1.870396    0.050285    0.534232
O         2.420648   -0.724464    1.263885
C         1.862374    1.530777    0.839026
F         1.292657    2.229830   -0.210960
H         2.884419    1.881828    0.985137
H         1.276933    1.712446    1.741438
