16
0 2
F        -1.280716   -2.090322    0.071596
O        -2.653003    0.588587    0.246907
O         2.214965    1.440232   -0.317312
P        -0.369596    2.039757    0.035156
P        -0.633946   -0.922686   -0.805697
C        -1.501378    0.565555   -0.095615
C         1.139430    0.957216   -0.074889
C         0.932889   -0.546319    0.133517
C         0.762849   -0.798626    1.638502
H        -0.043935   -0.211438    2.077159
H         1.689391   -0.546734    2.155314
H         0.541779   -1.848819    1.819086
C         2.110584   -1.337193   -0.419820
H         2.253178   -1.149447   -1.483023
H         3.028094   -1.055216    0.094589
H         1.949120   -2.405862   -0.276304
