18
0 2
C        -1.207927   -0.289585   -0.000008
C        -2.165937   -1.317698    0.000003
H        -1.835578   -2.349494    0.000002
C        -3.515663   -1.034484    0.000017
H        -4.236374   -1.840965    0.000026
C        -3.942309    0.284290    0.000019
H        -5.000165    0.511351    0.000030
C        -3.011351    1.312555    0.000008
H        -3.345120    2.341678    0.000010
C        -1.658487    1.038755   -0.000006
H        -0.943196    1.844244   -0.000016
P         0.473359   -0.893135   -0.000015
C         1.538658    0.612192   -0.000040
O         1.217555    1.776775   -0.000091
C         3.043032    0.296143    0.000007
F         3.355938   -0.441654    1.093890
F         3.355986   -0.441764   -1.093788
H         3.632193    1.213748   -0.000026
