16
0 2
P         0.757906   -1.371691    0.000000
C        -0.121141   -0.526087    1.385524
C        -0.121141    0.999767    1.272595
C        -0.793470    1.500026    0.000000
C        -0.121141    0.999767   -1.272595
C        -0.121141   -0.526087   -1.385524
H         0.341818   -0.841945    2.321319
H        -1.154448   -0.890213    1.408581
H         0.909471    1.365289   -1.303469
H        -0.625646    1.424771   -2.143736
H         0.341818   -0.841945   -2.321319
H        -1.154448   -0.890213   -1.408581
H         0.909471    1.365289    1.303469
H        -0.625646    1.424771    2.143736
H        -0.800889    2.591932    0.000000
H        -1.841897    1.183303    0.000000
