14
0 1
F         2.315142   -0.971466    0.865984
P         1.672607   -0.433182   -0.491771
N         1.688056    1.319185   -0.117128
N         0.563605    1.811139    0.035358
C        -0.101057   -0.466192   -0.153044
C        -0.505340    0.853678    0.010180
C        -1.828007    1.205534    0.160664
H        -2.104782    2.244147    0.277437
C        -2.772257    0.188888    0.156508
H        -3.819637    0.429107    0.279055
C        -2.386935   -1.133689   -0.007021
H        -3.137331   -1.912711   -0.003899
C        -1.049763   -1.469575   -0.179883
H        -0.765103   -2.503755   -0.321922
