22
0 1
C        -0.995400    2.305993   -0.543738
H        -1.863431    2.962525   -0.559188
H        -0.515553    2.353308   -1.523463
H        -0.280070    2.697317    0.179835
F         1.617120   -1.427811   -1.224747
O         1.830048    1.545598    1.088953
P         1.152719    0.105004   -1.024636
C         2.747720   -0.648024    1.299718
H         3.139595   -0.283099    2.246307
H         3.562811   -0.974676    0.652262
H         2.108306   -1.516899    1.463105
C        -0.518919   -0.177922   -0.346631
C         1.965999    0.440757    0.629789
C        -1.399168    0.901001   -0.200532
C        -0.926735   -1.465278   -0.015301
H        -0.245688   -2.293888   -0.150964
C        -3.074728   -0.636457    0.624689
H        -4.074873   -0.805318    1.001225
C        -2.672061    0.644258    0.290188
H        -3.362529    1.470122    0.406764
C        -2.200938   -1.696975    0.469160
H        -2.508436   -2.703040    0.720693
