15
0 1
Cl       -1.518729    1.274719    1.336523
P         0.300864    1.703922   -1.142422
C        -1.284226    1.078053   -0.414246
F         0.528535    2.993897   -0.246369
P        -1.625974   -0.591409   -1.142654
C         1.575782    0.573152   -0.414113
C        -0.291505   -1.651174   -0.414289
F        -2.857054   -1.039237   -0.246735
Cl        1.863379    0.677697    1.336657
P         1.325219   -1.112388   -1.142553
Cl       -0.344774   -1.952475    1.336483
F         2.328524   -1.954786   -0.246705
H        -2.041577    1.713895   -0.878605
H         2.505104    0.911190   -0.878436
H        -0.463403   -2.625012   -0.878611
