15
0 2
O         1.206884    2.495056   -0.000010
O         1.206884   -2.495056    0.000011
P         2.325894    0.000000    0.000000
C         0.995495    1.309599    0.000002
C        -0.359063    0.693935   -0.000001
C        -1.548217    1.403300   -0.000002
C        -2.736850    0.696507   -0.000001
C        -2.736850   -0.696507    0.000001
C        -1.548217   -1.403300    0.000002
C        -0.359063   -0.693935    0.000000
C         0.995495   -1.309599   -0.000002
H        -1.528684    2.484477   -0.000002
H        -3.678780    1.228506   -0.000002
H        -3.678780   -1.228506    0.000002
H        -1.528684   -2.484478    0.000002
