12
0 1
F         0.000000   -1.411980   -1.681516
F        -2.559631    1.427521    0.357195
F         2.559635    1.427515    0.357195
P        -0.000003   -2.064738   -0.191729
P        -1.665525    0.605652   -0.651092
P         1.665527    0.605648   -0.651092
C         1.331156   -0.892127    0.459106
C        -1.331159   -0.892125    0.459104
C         0.000002    1.383321   -0.182274
O         1.912455   -1.079699    1.480217
O        -1.912461   -1.079697    1.480214
O         0.000003    2.436852    0.376721
