16
0 1
F        -3.006131    0.000000   -0.502850
O        -0.953741    2.419495   -0.313416
O        -0.953741   -2.419495   -0.313417
P        -1.889877    0.000000    0.631723
C        -0.682267    1.295173    0.003100
C         0.675876    0.695973    0.017733
C         1.867350    1.404921    0.000740
C         3.053273    0.697393   -0.010217
C         3.053273   -0.697393   -0.010217
C         1.867350   -1.404921    0.000740
C         0.675876   -0.695973    0.017734
C        -0.682267   -1.295173    0.003100
H         1.850440    2.486073   -0.010956
H         3.995760    1.228133   -0.024943
H         3.995760   -1.228132   -0.024943
H         1.850440   -2.486072   -0.010955
