17
0 1
F        -2.043885   -0.959270    1.133105
P        -1.625840   -0.705428   -0.412420
C        -1.811055    1.135876   -0.454647
N        -0.606283    1.712429    0.112329
H        -0.444133    2.697304   -0.012854
C         0.151360   -0.469134   -0.230243
C         1.151920   -1.427558   -0.303900
H         0.895460   -2.456234   -0.524514
C         2.779287    0.259104    0.184641
H         3.812146    0.541223    0.343962
C         0.473840    0.864516    0.051604
C         2.469787   -1.068299   -0.096770
H         3.255360   -1.808304   -0.154683
C         1.801164    1.230407    0.261930
H         2.060663    2.257556    0.483872
H        -2.705847    1.426627    0.096029
H        -1.944933    1.420186   -1.505461
