19
0 1
C         0.435198    1.147939   -0.003583
C        -0.948001    1.189845   -0.001846
C        -1.691804    0.016735   -0.005676
C         1.105493   -0.067864   -0.000770
C         0.362552   -1.244199   -0.007190
C        -1.014613   -1.202051   -0.021066
H         0.987179    2.077399    0.000096
H        -1.449486    2.148480    0.008945
P        -3.519868    0.006343   -0.087495
H        -1.574733   -2.128969   -0.045717
H         0.892280   -2.186540   -0.009577
C         2.595790   -0.164966    0.005638
O         3.140586   -1.243375    0.011080
C         3.404447    1.106031    0.005399
H         3.179893    1.707192   -0.876753
H         4.459347    0.848243    0.010444
H         3.172772    1.711950    0.882464
H        -3.722530    1.377677    0.181242
H        -3.765752   -0.392395    1.247206
