19
0 1
C         2.272491   -0.142538   -0.009957
C         1.775730    1.153684   -0.007597
C         0.417906    1.407361   -0.002486
C         1.345895   -1.175490   -0.012864
C        -0.016925   -0.939657   -0.007856
C        -0.503416    0.363500   -0.001116
H         2.465296    1.989436   -0.012088
H         0.062808    2.431390   -0.003707
H         1.695229   -2.201154   -0.021651
H        -0.704418   -1.773485   -0.013178
N        -1.868848    0.663308    0.001442
P        -3.141716   -0.463309    0.005269
H        -2.071862    1.648313    0.003798
C         3.748987   -0.414431    0.017708
H         4.306096    0.369725   -0.495000
H         3.985537   -1.363379   -0.463263
H         4.124621   -0.465033    1.042416
H        -3.953879    0.079535   -1.021103
H        -3.945763    0.076550    1.039652
