13
0 1
P        -0.109968   -1.315870   -0.190294
C         1.017553    0.171749    0.005209
C         0.185361    1.437708    0.120533
C        -1.248105    1.105232   -0.269140
C        -1.574775   -0.284234    0.296401
H        -1.337241    1.083493   -1.358087
H        -1.953315    1.852985    0.091922
H         0.640222    2.232510   -0.469424
H         0.239271    1.741442    1.170756
O         2.214595    0.133161    0.025327
H        -2.495619   -0.682115   -0.124592
H        -1.688751   -0.239628    1.379296
H         0.247983   -1.898650    1.043908
