21
0 2
C         2.642348    0.950304    0.000000
C         3.483439   -0.148544    0.000000
C         2.954882   -1.432620   -0.000001
C         1.582290   -1.632964   -0.000001
C         0.732552   -0.541980   -0.000001
C         1.264233    0.763150    0.000000
P         0.000000    2.031825    0.000001
C        -1.264233    0.763150    0.000001
H         3.619772   -2.286087   -0.000002
H         4.555939   -0.007786   -0.000001
H         1.185005   -2.639709   -0.000002
C        -0.732552   -0.541980    0.000000
H         3.056101    1.950818    0.000001
C        -2.642348    0.950304    0.000001
C        -3.483439   -0.148544    0.000000
C        -2.954882   -1.432620   -0.000001
C        -1.582290   -1.632964   -0.000001
H        -3.056101    1.950818    0.000002
H        -1.185005   -2.639709   -0.000002
H        -4.555939   -0.007786    0.000001
H        -3.619772   -2.286087   -0.000001
