9
0 2
P         1.251983   -0.000001    0.000011
C        -0.000573    1.264589   -0.000013
C        -1.240098    0.730549    0.000003
C        -1.240100   -0.730548    0.000006
C        -0.000575   -1.264589   -0.000015
H         0.210042    2.323197   -0.000027
H        -2.155870    1.307493    0.000000
H         0.210039   -2.323197   -0.000030
H        -2.155872   -1.307490    0.000003
