7
0 1
P         0.829764   -0.054950   -0.117557
N        -0.680374    0.796926    0.189554
C        -0.890883   -0.625389   -0.017460
H        -1.231505   -1.161080    0.859163
H        -1.341638   -0.953200   -0.947560
H        -0.952989    1.351639   -0.612763
H         1.187576   -0.239261    1.242395
