8
0 2
C         0.431489    0.218822    0.000001
P        -1.365016   -0.286969   -0.000001
C         1.427230   -0.911446    0.000003
H         1.276048   -1.542890    0.877503
H         2.438511   -0.511914    0.000005
H         1.276052   -1.542889   -0.877499
O         0.769104    1.375705   -0.000003
H        -1.820508    1.052338    0.000016
