12
0 1
C         1.865772   -0.849150    0.187321
C         2.249343    0.432193    0.144882
P         0.205129   -1.338820   -0.249682
C        -0.748582    0.179710   -0.039115
C        -0.014302    1.419392   -0.139056
C         1.327091    1.524381   -0.057414
S        -2.374066    0.127225    0.122601
H         2.595352   -1.632750    0.351448
H         3.292419    0.686400    0.286972
H        -0.616747    2.316569   -0.209689
H         1.754724    2.518716   -0.099453
H        -0.193548   -2.081387    0.874627
