18
0 2
C         2.220400   -0.135807   -0.012427
C         1.311010   -1.177484    0.087664
C        -0.054166   -0.954730    0.141525
C         1.710182    1.157618   -0.050385
C         0.353074    1.395995   -0.006265
C        -0.552892    0.340186    0.084557
H         1.675127   -2.196348    0.138154
H        -0.727403   -1.791518    0.253349
H         2.390482    1.997880   -0.120393
H        -0.017623    2.413299   -0.049715
N        -1.920792    0.623524    0.125979
P        -3.300353   -0.333353   -0.092463
H        -2.121038    1.593874    0.313313
C         3.698142   -0.387078   -0.089292
H         3.939607   -1.409262    0.199210
H         4.250657    0.286929    0.566254
H         4.072604   -0.233273   -1.103664
H        -2.626073   -1.458154   -0.623691
