20
0 1
C        -0.637551   -1.606519   -0.001850
C         0.726281   -1.384376   -0.008819
C         1.222277   -0.087302   -0.014089
C        -1.545293   -0.555671    0.004738
C        -1.059467    0.754003   -0.002417
C         0.312632    0.963114   -0.018305
H        -1.010602   -2.623488    0.000071
H         1.405926   -2.226498   -0.008691
P         3.007401    0.320894   -0.027569
C        -3.020060   -0.827757    0.014114
H        -3.219980   -1.897610    0.021478
H        -3.510399   -0.399566   -0.862521
H        -3.501134   -0.388939    0.890570
C        -2.000768    1.922308   -0.001691
H        -2.660018    1.905122   -0.871906
H        -1.454150    2.863372   -0.013506
H        -2.642700    1.917304    0.881573
H         0.683435    1.981409   -0.038497
H         3.470304   -0.847227   -0.675494
H         3.339998   -0.164092    1.260378
