19
0 1
S         0.910545    0.646537    0.497839
O         1.057365    2.070290    0.317828
P         2.031310   -0.298527   -1.134982
C        -0.782789    0.220826    0.199317
C        -1.526170    0.987984   -0.683277
C        -2.837299    0.633491   -0.941317
C        -3.390718   -0.476818   -0.322173
C        -2.639718   -1.233674    0.561985
C        -1.326255   -0.887022    0.827577
H        -3.079725   -2.091484    1.052183
H        -0.726831   -1.447691    1.530449
H        -1.079938    1.858993   -1.142362
H        -3.431342    1.227753   -1.622142
H        -4.417756   -0.749376   -0.525663
O         1.296560    0.014782    1.739805
N         2.337781   -1.815622   -0.501888
H         1.789986   -2.577961   -0.864424
H         2.560730   -1.911666    0.478826
H         3.168338    0.384801   -0.648090
