14
0 2
C         1.445430   -0.252406    0.036103
C         1.269110    1.233872    0.229322
P         0.000000   -1.419041    0.009041
C        -1.445430   -0.252406    0.036101
C        -1.269111    1.233874    0.229312
C         0.000002    1.800859   -0.391504
H        -1.261187    1.412662    1.310457
H        -2.164412    1.714198   -0.165364
H         0.000003    2.883784   -0.269075
H         0.000006    1.614050   -1.468726
H         2.164415    1.714199   -0.165344
H         1.261175    1.412654    1.310467
O        -2.537385   -0.753043   -0.095250
O         2.537385   -0.753043   -0.095255
