16
0 1
C        -1.844908   -0.799950    0.049774
C        -1.845834    0.490801   -0.761870
P        -0.143449   -1.500701    0.269374
H        -2.448404   -1.572168   -0.429428
H        -2.280656   -0.642108    1.038559
C         0.804504    0.053785    0.233375
C         0.051649    1.196883    0.841654
C        -1.127021    1.641856   -0.049219
H         0.723515    2.031923    1.029025
H        -0.342059    0.864823    1.807776
H        -0.758279    2.348046   -0.793278
H        -1.830754    2.188577    0.580366
H        -2.869413    0.794120   -0.990478
H        -1.361159    0.293987   -1.720379
S         2.311406    0.162303   -0.336553
H         0.106111   -1.893776   -1.060213
