20
0 1
C         1.060101    1.223444    0.002113
C        -0.321990    1.193771   -0.005856
C        -1.015621   -0.015441   -0.013739
C         1.752053    0.013906    0.007128
C         1.094075   -1.201541   -0.001163
C        -0.299138   -1.200128   -0.017943
H        -0.871872    2.126786   -0.005327
P        -2.845499   -0.123988   -0.024770
C         1.850197   -2.498427    0.004829
H         2.925159   -2.330173   -0.037886
H         1.571416   -3.119494   -0.847648
H         1.635649   -3.072709    0.907654
H        -0.830028   -2.144959   -0.038535
H         2.836413    0.027937    0.014058
C         1.810453    2.523749    0.004019
H         1.129429    3.372970    0.027289
H         2.434630    2.617681   -0.886219
H         2.469124    2.596095    0.870883
H        -3.107852    1.067317   -0.739872
H        -3.090366    0.482381    1.230825
