13
0 1
C         0.595660    0.426761    0.012731
P         2.125326   -0.615456   -0.120199
O        -0.507557   -0.327338    0.020881
O         0.593670    1.624887    0.001912
C        -1.763574    0.378490    0.004441
C        -2.861280   -0.650898   -0.009380
H        -1.788359    1.019945   -0.876248
H        -1.811834    1.019770    0.884241
H        -2.788426   -1.284833   -0.892478
H        -3.831634   -0.154254   -0.021867
H        -2.811278   -1.284623    0.875490
H         1.754410   -1.573131    0.846055
H         2.883495    0.182459    0.758692
