17
0 1
S        -1.198699    0.000000   -0.529090
O        -1.529809    1.252202   -1.152941
P        -2.223035    0.000000    1.380441
C         0.543554    0.000000   -0.205416
C         1.208144    1.208507   -0.082766
C         2.566837    1.202679    0.176147
C         3.242544    0.000000    0.308790
C         2.566837   -1.202679    0.176147
C         1.208144   -1.208507   -0.082766
H         3.100775   -2.138665    0.267450
H         0.664459   -2.134072   -0.209733
H         0.664459    2.134072   -0.209734
H         3.100775    2.138665    0.267450
H         4.305584    0.000000    0.509530
O        -1.529809   -1.252202   -1.152940
H        -1.425382    1.033477    1.920047
H        -1.425383   -1.033477    1.920047
