18
0 2
C        -0.381189   -1.151650    0.000002
C         0.996970   -1.193423   -0.000001
C         1.754906   -0.014221   -0.000002
C        -1.050510    0.068641    0.000005
C        -0.306970    1.247508    0.000004
C         1.067482    1.209808    0.000001
H        -0.935777   -2.079357    0.000002
H         1.503040   -2.150764   -0.000003
P         3.534491   -0.162515   -0.000007
H         1.628504    2.134709    0.000001
H        -0.839443    2.188310    0.000006
C        -2.540609    0.167197    0.000007
O        -3.082064    1.247481    0.000001
C        -3.351032   -1.102131    0.000000
H        -3.123977   -1.706129   -0.879612
H        -4.405516   -0.842715   -0.000001
H        -3.123980   -1.706137    0.879607
H         3.802009    1.229598   -0.000007
