16
0 2
C        -0.049377    1.201551   -0.024471
C         1.328991    1.202696   -0.010483
C         2.050629    0.002039   -0.002657
C        -0.740057   -0.001744   -0.032542
C        -0.048783   -1.203874   -0.024315
C         1.329774   -1.199939   -0.010361
H        -0.593762    2.135358   -0.036317
H         1.859536    2.145021   -0.007806
P         3.837857   -0.091190    0.013390
C        -2.238804    0.000344   -0.000162
F        -2.754304    1.066354   -0.628584
F        -2.757573   -1.092481   -0.576734
F        -2.705975    0.031920    1.260917
H         1.864393   -2.141394   -0.007509
H        -0.591147   -2.138627   -0.035842
H         4.059553    1.308897    0.016178
