12
0 1
C        -1.313789   -0.005750   -0.032384
P         0.012945   -1.271098    0.319254
C         1.307707    0.025492   -0.057350
C         0.706195    1.425556   -0.058894
C        -0.772117    1.371322    0.316221
O         2.463361   -0.199040   -0.269701
H        -1.379170    2.128448   -0.175797
H        -0.903689    1.493768    1.395326
H         0.841105    1.803524   -1.074871
H         1.299025    2.063928    0.595567
O        -2.419542   -0.226361   -0.430816
H         0.030019   -1.919710   -0.930465
