15
0 2
C         3.108491    0.027127    0.013720
C         2.403487    1.145434   -0.398190
C         1.021516    1.128730   -0.405145
C         2.423737   -1.112414    0.404749
C         1.043088   -1.136485    0.380437
C         0.322446   -0.011868   -0.015567
H         4.190145    0.041778    0.026088
H         2.931362    2.033730   -0.717996
H         0.477903    2.001029   -0.741967
H         2.969453   -1.988570    0.728348
H         0.505225   -2.026183    0.675580
C        -1.152373   -0.030697   -0.038131
P        -2.171502    1.355607    0.327298
S        -2.021350   -1.412748   -0.344071
H        -1.182309    2.149123    0.974365
