15
0 2
C        -0.292787   -1.193909   -0.002486
C         1.081458   -1.199430   -0.006146
C         1.795758    0.001415   -0.006468
C        -1.029213    0.001876   -0.000329
C        -0.294928    1.197706   -0.002515
C         1.079637    1.201475   -0.006160
H        -0.821921   -2.139230   -0.000626
H         1.619837   -2.139345   -0.011619
N         3.172534    0.002741   -0.053490
H         3.642987   -0.841083    0.223549
H         3.641493    0.847017    0.224667
P        -2.806036   -0.092845    0.005962
H         1.617738    2.141681   -0.011728
H        -0.822448    2.142554   -0.000659
H        -3.034437    1.307097    0.006037
