7
0 1
C        -0.069796    1.180076    0.000000
P        -0.069796   -0.668648    0.000000
H         0.925912    1.616809    0.000000
H        -0.609923    1.531477    0.878510
H        -0.609923    1.531477   -0.878510
H         0.879826   -0.865247    1.030111
H         0.879826   -0.865247   -1.030111
