21
0 2
C        -1.113542    1.260974   -0.139301
C         0.253480    1.381929   -0.009035
C        -1.709158    0.021678   -0.355156
C        -0.880770   -1.089511   -0.448123
C         0.491261   -0.977661   -0.324235
C         1.090559    0.262899   -0.092517
H         0.688523    2.359286    0.165157
H        -1.736030    2.145423   -0.071981
H        -1.319107   -2.063046   -0.634745
H         1.103620   -1.861169   -0.445143
P         2.852770    0.548488    0.072286
N         3.406507   -1.031357    0.305353
H         4.397812   -1.149013    0.433290
H         2.861258   -1.707072    0.818356
C        -3.202625   -0.113776   -0.442533
C        -3.849707   -0.319900    0.925561
H        -3.453402   -0.954356   -1.092534
H        -3.621540    0.779509   -0.910251
H        -3.468142   -1.223090    1.403181
H        -4.932694   -0.413658    0.837315
H        -3.634382    0.519574    1.587627
