19
0 2
C         2.120175    1.241903   -0.000004
C         0.770211    1.507941   -0.000001
C         2.558463   -0.079958   -0.000005
C         1.632940   -1.121050   -0.000003
C         0.281720   -0.852162   -0.000001
C        -0.179099    0.472395    0.000000
H         0.433423    2.537103   -0.000001
H         2.840755    2.047361   -0.000005
H         1.982811   -2.143914   -0.000004
H        -0.429938   -1.661250    0.000000
P        -1.877515    1.041895    0.000004
C        -2.952145   -0.485641    0.000005
O        -2.562665   -1.627788   -0.000001
C        -4.423053   -0.154273    0.000012
H        -4.673711    0.444761   -0.877403
H        -4.673708    0.444732    0.877446
H        -5.002717   -1.074126   -0.000001
C         3.959332   -0.367281   -0.000007
N         5.082268   -0.596004   -0.000009
