8
0 2
P         0.337646   -1.291489    0.000022
C        -0.924274    0.049923   -0.000006
O        -0.301255    1.307908   -0.000004
C         1.034919    1.193635    0.000004
C         1.564802   -0.054059   -0.000006
O        -2.111906   -0.018438   -0.000028
H         2.630575   -0.219273   -0.000014
H         1.557333    2.138861   -0.000004
