14
0 1
C        -1.461320   -0.471327    0.021713
P        -0.938667    1.293902   -0.232846
C         0.832995    0.768834    0.034902
N         0.943048   -0.585127   -0.063082
C        -0.254395   -1.387073   -0.111909
H        -0.282914   -2.116055    0.703114
H        -0.335980   -1.941741   -1.053293
O        -2.566000   -0.879087    0.233031
C         2.230027   -1.238500   -0.000389
H         3.000326   -0.473540    0.017653
H         2.373526   -1.880824   -0.871148
H         2.310895   -1.849397    0.901738
O         1.756616    1.528546    0.202543
H        -1.195947    1.721652    1.085711
