16
0 1
C         0.236011   -1.195022    0.001695
C        -1.146202   -1.196198    0.006078
C        -1.851601    0.002994    0.007724
C         0.963927   -0.010794   -0.000221
C         0.247791    1.184991    0.002264
C        -1.129623    1.198244    0.006848
H         0.761939   -2.141647   -0.001038
H        -1.686356   -2.135045    0.011499
N        -3.233825    0.015588    0.059283
H        -3.700950   -0.822938   -0.240292
H        -3.686349    0.858460   -0.250226
P         2.786383   -0.112462   -0.006568
H        -1.661641    2.141936    0.013603
H         0.779904    2.127879    0.000408
H         3.059651    0.811953    1.029663
H         3.053014    0.831933   -1.026409
