15
0 1
C        -1.469816   -1.465289   -0.005015
C        -2.686639   -0.803594    0.009857
C        -2.744408    0.582514    0.017109
C        -1.577580    1.328642    0.005843
C        -0.351437    0.684662    0.008478
C        -0.321772   -0.703712   -0.004076
H        -1.405729   -2.543972   -0.014605
H        -1.624920    2.409706   -0.003115
H        -3.602324   -1.379202    0.011720
H        -3.702995    1.082380    0.024158
O         0.914258   -1.302255   -0.015222
P         1.328924    1.350135   -0.106405
C         1.958635   -0.410672   -0.007980
O         3.082980   -0.783293    0.036189
H         1.582302    1.588153    1.264877
