17
0 1
C        -1.106562   -1.156197   -0.135413
C         0.267032   -1.013413   -0.176401
C        -1.917084   -0.034983   -0.001207
C        -1.339910    1.229164    0.091795
C         0.031527    1.359549    0.052313
C         0.852873    0.242355   -0.078030
H         0.897150   -1.886261   -0.279616
H        -1.558146   -2.135949   -0.206856
H        -1.972393    2.099290    0.199061
H         0.469389    2.347538    0.131396
P         2.659644    0.471704   -0.246593
N         3.270217   -0.982677    0.344293
H         4.105660   -1.335441   -0.087274
H         3.162007   -1.264414    1.304950
C        -3.339556   -0.178409    0.044519
N        -4.479306   -0.293116    0.082002
H         2.775366    1.341835    0.867718
