8
0 2
C         1.385921    0.429897    0.007607
P        -0.082537   -0.670271   -0.011632
H         1.413012    1.034354    0.916387
H         1.400841    1.096816   -0.857765
H         2.286041   -0.183055   -0.023374
N        -1.266541    0.537792    0.051132
H        -1.079482    1.489451   -0.220525
H        -2.232090    0.272577   -0.043805
