11
0 2
C        -1.790534   -0.916944   -0.000003
C        -2.243675    0.387124   -0.000007
P        -0.137209   -1.399520    0.000002
C         0.663975    0.161786    0.000004
C        -0.026001    1.388763   -0.000003
C        -1.395797    1.495206   -0.000007
S         2.369639    0.141717    0.000005
H        -2.528796   -1.710818   -0.000003
H        -3.312532    0.567345   -0.000010
H         0.575004    2.290209   -0.000003
H        -1.837574    2.482965   -0.000011
