18
0 2
C        -0.517760    1.281626    0.031874
C         0.854009    1.395304    0.022796
C        -1.108455    0.026816   -0.044984
C        -0.316367   -1.105309   -0.139302
C         1.059776   -0.989053   -0.153414
C         1.675231    0.262736   -0.063493
H         1.306506    2.377271    0.089427
H        -1.136262    2.166042    0.096035
H        -0.777879   -2.079634   -0.217500
H         1.657474   -1.882192   -0.270809
P         3.444097    0.549772   -0.081683
N         4.023730   -1.009460    0.181591
H         5.022654   -1.130068    0.201941
H         3.531661   -1.676270    0.755648
C        -2.598784   -0.095337    0.018015
F        -3.214451    0.923308   -0.601639
F        -3.046789   -0.096182    1.288073
F        -3.040718   -1.228928   -0.545276
