17
0 1
C        -2.843010   -0.485926    0.011506
C        -2.137734    0.704846    0.007342
C        -0.747320    0.729460   -0.013973
C        -2.167492   -1.690164   -0.012203
C        -0.784881   -1.692797   -0.030866
C        -0.080076   -0.500766   -0.023888
H        -3.924613   -0.466891    0.026151
H        -2.682857    1.638689    0.014442
P         0.139962    2.343277    0.082427
H        -0.245370   -2.628012   -0.048776
H        -2.709539   -2.625644   -0.015558
C         1.422816   -0.563978    0.005439
F         1.887399   -1.792268   -0.256125
F         1.980291    0.261002   -0.899252
F         1.914582   -0.210798    1.203577
H        -1.021472    3.138608   -0.022068
H         0.470151    2.468622   -1.284549
