17
0 1
C         1.988838   -0.048118   -0.000001
C         1.475620    1.246062    0.000000
C         0.116268    1.454451    0.000000
C         1.104624   -1.122964   -0.000001
C        -0.256937   -0.917475   -0.000001
C        -0.775589    0.378666   -0.000001
H         2.151874    2.089519    0.000001
H        -0.270331    2.466017    0.000001
H         1.493896   -2.131618   -0.000002
H        -0.924909   -1.766176   -0.000002
N        -2.136534    0.637449   -0.000001
P        -3.384732   -0.530920    0.000002
H        -2.371043    1.616059    0.000001
C         3.399077   -0.268156   -0.000001
N         4.532351   -0.443858   -0.000001
H        -4.195317    0.000036   -1.031492
H        -4.195310    0.000030    1.031504
