15
0 2
C        -1.306496   -1.123429    0.223089
C        -1.866517    0.211870   -0.254725
P         0.486058   -1.436224   -0.102338
H        -1.859146   -1.957567   -0.213676
H        -1.446712   -1.209859    1.306784
C         1.180389    0.274988   -0.016778
C         0.318889    1.495463   -0.243011
C        -1.099378    1.399676    0.306294
H         0.275720    1.638470   -1.328576
H         0.859076    2.349453    0.166998
H        -1.627935    2.325399    0.074433
H        -1.067747    1.328469    1.397727
H        -2.915796    0.279441    0.040352
H        -1.849425    0.251566   -1.347611
O         2.372472    0.373323    0.168679
