18
0 1
C         0.658031    0.137155   -0.046212
C        -0.796718    0.473787   -0.112829
O        -1.185551    1.590735   -0.381729
N        -1.675873   -0.538067    0.155463
P        -3.381533   -0.262259    0.002904
H        -1.314917   -1.369404    0.590058
C         1.142298   -1.157383   -0.186962
C         2.502906   -1.402962   -0.129392
C         3.386878   -0.357221    0.074755
C         2.909081    0.936804    0.208867
C         1.551209    1.183656    0.141979
H         0.465354   -1.979584   -0.378371
H         2.873627   -2.411791   -0.251182
H         4.450409   -0.550024    0.122460
H         3.598793    1.755819    0.362516
H         1.157247    2.186354    0.229678
H        -3.689534    0.081101    1.346183
H        -3.724572   -1.621017    0.199454
