11
0 2
N         2.312031    0.132203   -0.068717
C         0.992659   -0.484158   -0.041441
C        -0.089535    0.584536    0.028699
H         0.874764   -1.058753   -0.962191
H         2.510517    0.605013    0.803870
H         3.036931   -0.557559   -0.214473
P        -1.818157   -0.050657   -0.067053
H         0.014394    1.148522    0.962053
H         0.056062    1.296361   -0.784832
H         0.851921   -1.187109    0.790276
H        -1.675192   -1.014312    0.968558
