14
0 1
C        -0.735389   -1.204243   -0.005614
C         0.649474   -1.199503   -0.018743
C         1.366471   -0.009250   -0.013394
C        -1.411508   -0.000580    0.000816
C        -0.723802    1.201016   -0.003888
C         0.657459    1.188859   -0.008756
H        -1.286183   -2.133816   -0.007237
H         1.178791   -2.143623   -0.037058
P         3.197336   -0.104827   -0.023437
H         1.190197    2.130652   -0.007757
Cl        -3.145326    0.009006    0.009441
H        -1.269458    2.133753   -0.002128
H         3.432907    0.467679    1.249296
H         3.447999    1.106871   -0.706584
