9
0 1
P        -0.331154   -1.266271   -0.111151
C         0.946542    0.095429   -0.010693
O         0.314714    1.323584   -0.013295
C        -1.049234    1.213407    0.012326
C        -1.597984    0.008137    0.049710
O         2.127920    0.014642    0.023352
H        -2.663877   -0.149535    0.043089
H        -1.545695    2.171822   -0.008240
H        -0.160132   -1.635874    1.243907
