14
0 1
C        -2.322054   -0.908605    0.000654
C        -1.059704   -1.471740    0.008230
C         0.087847   -0.682604    0.010856
C        -2.465337    0.468399    0.001078
C        -1.343684    1.275919    0.004258
C        -0.088269    0.696214    0.001805
H        -3.195000   -1.547083    0.000620
H        -0.958967   -2.549057    0.016760
H        -1.432321    2.352877    0.006159
P         1.758307   -1.422073   -0.109140
Cl         1.303333    1.739074   -0.003349
H        -3.449092    0.917530    0.000083
H         1.386587   -2.695594    0.376844
H         2.264737   -0.977328    1.132276
