16
0 2
C        -1.939676   -0.044104    0.001829
C        -1.071678   -1.128491   -0.073624
C         0.292409   -0.937471   -0.109991
C        -1.413381    1.245493    0.035347
C        -0.052842    1.437491    0.004180
C         0.823523    0.350676   -0.062751
H        -1.474631   -2.130805   -0.113676
H         0.944610   -1.792459   -0.196646
H        -2.080067    2.094532    0.090566
H         0.347851    2.442790    0.041028
N         2.188731    0.596732   -0.087301
P         3.556836   -0.398430    0.069242
H         2.414054    1.571600   -0.217130
C        -3.352270   -0.249040    0.036813
N        -4.486751   -0.412591    0.065069
H         2.865267   -1.545519    0.522038
