17
0 2
C        -1.595502   -1.400323    0.000000
C        -2.864720   -0.869342    0.000000
C        -3.034163    0.511149    0.000000
C        -1.932162    1.341146    0.000000
C        -0.637040    0.825822    0.000000
C        -0.457744   -0.576452    0.000000
P         1.120367   -1.385186    0.000000
C         2.265285    0.035261   -0.000005
H        -4.029011    0.935662    0.000000
H        -3.726194   -1.523119    0.000000
H        -2.066992    2.415440    0.000000
O         3.464550   -0.210880    0.000004
C         0.480330    1.746389    0.000000
C         1.774811    1.410036   -0.000001
H         0.220938    2.798954    0.000001
H         2.545907    2.170915    0.000001
H        -1.461110   -2.475137    0.000000
