12
0 2
C         0.314999    0.155807   -0.000001
P        -1.239809   -0.853810   -0.000003
O         1.384712   -0.652631   -0.000003
O         0.391141    1.355332    0.000001
C         2.658022   -0.003321    0.000002
H         2.765832    0.619968    0.886002
H         2.765832    0.619982   -0.885987
H         3.395353   -0.799689   -0.000004
C        -2.406816    0.550156    0.000003
H        -2.253263    1.178962    0.877708
H        -3.427416    0.171489   -0.000006
H        -2.253253    1.178981   -0.877688
