19
0 1
C        -2.295721   -1.150198   -0.704600
C        -1.012263   -1.212392   -0.193515
C        -3.065397   -0.013093   -0.515010
C        -2.550470    1.055833    0.196924
C        -1.269585    0.987016    0.719158
C        -0.481179   -0.141828    0.521932
H        -0.414824   -2.100674   -0.353971
H        -2.696584   -1.990672   -1.255579
H        -4.068310    0.035689   -0.917736
H        -3.149957    1.942338    0.355665
H        -0.877992    1.818416    1.291946
P         1.213420   -0.149931    1.199674
C         2.254548    0.085952   -0.337668
O         3.301003   -0.499924   -0.430458
C         1.786365    1.077078   -1.366620
H         0.917586    0.677209   -1.891518
H         2.589066    1.269963   -2.074480
H         1.469456    2.005771   -0.889793
H         1.424453   -1.539887    1.260413
