11
0 2
C         0.000000    1.349498    0.727410
C         0.000000    1.256314   -0.622519
P         0.000000   -0.000000    1.848263
C        -0.000000   -1.349498    0.727410
C        -0.000000   -1.256314   -0.622519
C         0.000000    0.000000   -1.356297
H         0.000000    2.337065    1.175357
H         0.000000    2.143045   -1.245546
O         0.000000    0.000000   -2.588059
H        -0.000000   -2.143045   -1.245546
H        -0.000000   -2.337065    1.175357
