17
0 2
P         2.135398   -0.290171    0.000006
C         0.492529    0.580839   -0.000006
C        -0.854052   -0.147814    0.000000
C        -1.975337    0.885890   -0.000038
H        -1.920706    1.527500   -0.877977
H        -1.920723    1.527546    0.877868
C        -0.955347   -1.018552   -1.255714
H        -0.863022   -0.416495   -2.160483
H        -1.928352   -1.510798   -1.278751
C        -0.955370   -1.018482    1.255761
H        -0.190702   -1.793787    1.282016
H        -0.863062   -0.416375    2.160499
O         0.566977    1.787190   -0.000025
H        -0.190679   -1.793859   -1.281912
H        -2.940856    0.378702   -0.000034
H        -1.928375   -1.510727    1.278807
H         1.665148   -1.627945    0.000057
