14
0 2
C         2.340466   -0.606398    0.000002
C         1.157875   -1.316699    0.000002
C        -0.084577   -0.670358    0.000000
C         2.324825    0.780767    0.000001
C         1.117027    1.451988    0.000000
C        -0.075754    0.740878   -0.000001
H         3.283382   -1.136569    0.000003
H         1.185783   -2.397533    0.000002
P        -1.646932   -1.551699    0.000000
H         1.087006    2.532550   -0.000001
H         3.251164    1.338137    0.000001
C        -1.303457    1.478389   -0.000002
N        -2.273039    2.089305   -0.000003
H        -1.050518   -2.837644    0.000001
