12
0 1
C        -0.098304   -1.091562    1.368181
C        -0.098304    0.240488    1.255360
P         0.189478   -2.204517    0.000000
C        -0.098304   -1.091562   -1.368181
C        -0.098304    0.240488   -1.255360
C        -0.028142    0.974908   -0.000000
H        -0.156351   -1.535462    2.355104
H        -0.163343    0.858039    2.142345
S         0.084292    2.607357   -0.000000
H        -1.023294   -2.931672    0.000000
H        -0.163343    0.858039   -2.142345
H        -0.156351   -1.535462   -2.355104
