16
0 1
C         1.848952   -0.038007   -0.000001
C         1.350479    1.250629    0.000002
C        -0.014656    1.456668    0.000001
C         0.982555   -1.113913   -0.000006
C        -0.383938   -0.906872   -0.000007
C        -0.905129    0.384569   -0.000004
H         2.028614    2.092094    0.000006
H        -0.398472    2.469670    0.000004
H         1.376140   -2.120490   -0.000009
H        -1.048428   -1.758721   -0.000011
N        -2.275073    0.643869   -0.000006
P        -3.516370   -0.522292    0.000008
H        -2.508319    1.622291   -0.000003
Cl         3.566103   -0.304252    0.000000
H        -4.335910   -0.001855   -1.031063
H        -4.335890   -0.001856    1.031095
