19
0 2
C        -1.318004   -1.363432   -0.011597
C         0.054154   -1.477954   -0.004954
C         0.894906   -0.354254    0.000829
C        -1.915244   -0.109602   -0.010799
C        -1.088407    1.008680   -0.008947
C         0.293320    0.924267   -0.002367
H        -1.933592   -2.254201   -0.019620
H         0.503928   -2.463786   -0.007085
P         2.642996   -0.722980    0.006704
H        -1.545982    1.991476   -0.015077
C         1.096533    2.191416   -0.002407
H         0.439272    3.059055   -0.006557
H         1.744142    2.255070   -0.877702
H         1.737726    2.258847    0.877315
C        -3.406422    0.040217    0.014984
H        -3.899318   -0.825832   -0.425000
H        -3.725686    0.929396   -0.527956
H        -3.767395    0.137174    1.041584
H         3.136956    0.601459    0.011075
