16
0 1
P         0.000000   -1.128842   -0.136493
C         1.296559    0.125928    0.022643
C         0.726791    1.341416   -0.008036
C        -0.726791    1.341416   -0.008038
C        -1.296559    0.125928    0.022642
H        -1.299856    2.261408   -0.028764
H         1.299856    2.261409   -0.028761
C        -2.758681   -0.170124    0.040008
H        -3.338494    0.751867    0.087175
H        -3.032788   -0.782896    0.901604
H        -3.067093   -0.718821   -0.851850
C         2.758681   -0.170124    0.040007
H         3.067093   -0.718821   -0.851851
H         3.032788   -0.782896    0.901603
H         3.338494    0.751867    0.087175
H         0.000000   -1.657118    1.175715
