19
0 2
C         0.581760   -1.607783    0.000000
C        -0.778970   -1.383600    0.000000
C        -1.284151   -0.079045    0.000000
C         1.490731   -0.557145    0.000000
C         1.004970    0.758499    0.000000
C        -0.359995    0.973780    0.000000
H         0.954100   -2.624803    0.000000
H        -1.462490   -2.223640    0.000000
P        -3.055703    0.141807   -0.000001
C         2.964070   -0.829847    0.000001
H         3.163665   -1.899663    0.000000
H         3.449928   -0.395897    0.876408
H         3.449929   -0.395896   -0.876405
C         1.952467    1.921828    0.000001
H         2.602655    1.907069    0.876914
H         1.410385    2.865519    0.000001
H         2.602655    1.907069   -0.876913
H        -0.726081    1.993025    0.000000
H        -3.034496    1.559987   -0.000001
