11
0 2
C         1.196208    1.284150    0.000000
C        -0.030877    1.819673    0.000000
C         1.455878   -0.143880    0.000000
P         0.059928   -1.356146    0.000004
C        -1.399417   -0.228935   -0.000011
N        -1.221414    1.140693   -0.000004
H        -2.082366    1.668470   -0.000003
O        -2.515577   -0.699054    0.000007
O         2.577260   -0.616838   -0.000001
H         2.058836    1.935289    0.000001
H        -0.149705    2.894674    0.000002
