17
0 2
C        -0.261078    2.170670   -0.000003
C        -1.360048    1.328939   -0.000002
C        -1.183954   -0.057411   -0.000001
C         1.017823    1.654655   -0.000001
C         1.210091    0.272924    0.000000
C         0.120271   -0.577399    0.000000
H        -0.403252    3.243223   -0.000004
H        -2.360150    1.742569   -0.000003
P        -2.652065   -1.076998   -0.000001
O         2.500022   -0.139449    0.000001
H         1.887837    2.296504   -0.000002
C         2.761564   -1.525025    0.000005
H         2.352378   -2.007535   -0.891199
H         2.352375   -2.007531    0.891210
H         3.842937   -1.628758    0.000007
H         0.256962   -1.647692    0.000001
H        -1.976297   -2.324340    0.000001
