28
0 1
P         0.001328   -1.342704    0.140594
Si        -1.786923    0.022274   -0.002717
C        -1.615299    1.462494   -1.189355
H        -0.840463    2.161990   -0.875769
H        -2.557054    2.013876   -1.239714
H        -1.373766    1.122313   -2.196830
C        -2.121677    0.676118    1.718662
H        -1.298923    1.289547    2.086483
H        -2.268466   -0.142332    2.424332
H        -3.023716    1.291444    1.724385
C        -3.216086   -1.048532   -0.562906
H        -3.044436   -1.445500   -1.564422
H        -4.142461   -0.470719   -0.587027
H        -3.362734   -1.893654    0.110388
Si         1.792855    0.022865   -0.005686
C         2.009461    0.767767   -1.709493
H         2.096525   -0.014147   -2.465231
H         2.921450    1.368075   -1.745925
H         1.173701    1.408288   -1.986858
C         3.296416   -1.021263    0.383888
H         3.397863   -1.845165   -0.324178
H         3.226683   -1.451536    1.383508
H         4.208669   -0.422892    0.333817
C         1.636688    1.378833    1.277221
H         0.831207    2.074508    1.041393
H         2.564311    1.952554    1.328671
H         1.445923    0.967523    2.269365
H         0.005688   -1.748073   -1.215759
