13
0 2
C        -0.009361    2.063266   -0.000001
C        -1.208191    1.379686    0.000001
C        -1.234790   -0.021402    0.000001
C         1.192545    1.373979   -0.000002
C         1.171487   -0.011257   -0.000001
C        -0.016322   -0.710703    0.000000
H        -0.003004    3.144899   -0.000002
H        -2.140956    1.929164    0.000001
P        -2.831235   -0.831012    0.000004
H         2.137009    1.898482   -0.000003
H         0.002361   -1.791084    0.000001
Cl         2.672302   -0.882434   -0.000002
H        -2.328240   -2.156322    0.000004
