22
0 1
C         0.929867   -1.163745   -0.134850
C        -0.432649   -1.023064    0.066621
C         1.743627   -0.060469   -0.350497
C         1.147291    1.194977   -0.365753
C        -0.213058    1.340897   -0.171505
C        -1.024497    0.232700    0.047574
H        -1.048489   -1.898003    0.228861
H         1.369578   -2.154349   -0.126617
H         1.758214    2.072183   -0.544003
H        -0.649507    2.332773   -0.203623
P        -2.796255    0.457290    0.429534
N        -3.486358   -0.926945   -0.248649
H        -4.314539   -1.284812    0.192492
H        -3.440264   -1.118690   -1.236281
C         3.229463   -0.212556   -0.518763
C         3.977993   -0.119660    0.809016
H         3.599105    0.558570   -1.197759
H         3.444861   -1.173536   -0.990030
H         3.799100    0.843126    1.289119
H         5.052990   -0.231814    0.662839
H         3.645352   -0.897725    1.497036
H        -3.016306    1.447058   -0.565565
