20
0 2
C        -3.440948   -0.630188    0.260599
C        -2.164660   -1.155530    0.235247
C        -3.643740    0.718841    0.012594
C        -2.558895    1.532577   -0.271364
C        -1.280379    1.007903   -0.301311
C        -1.054720   -0.346679   -0.037688
H        -2.015768   -2.209455    0.438751
H        -4.282557   -1.274125    0.478714
H        -4.642912    1.132430    0.034190
H        -2.711219    2.583057   -0.481894
H        -0.457430    1.657956   -0.568156
P         0.538003   -1.183347   -0.079963
N         1.554480    0.177951    0.156295
C         2.920682    0.115160   -0.010887
O         3.462421   -0.876766   -0.435586
C         3.671891    1.359601    0.388331
H         3.208135    2.255845   -0.024803
H         4.695408    1.280849    0.035511
H         3.678102    1.453341    1.475630
H         1.182084    1.028673    0.548987
