16
0 2
C        -0.287168    1.227198   -0.100988
C        -1.007335   -0.108528    0.090380
C        -0.031285   -1.242721   -0.179772
P         1.719194   -0.830238    0.341421
P         1.570396    1.236340   -0.251762
C        -1.431677   -0.195338    1.567049
H        -0.579562   -0.136346    2.245003
H        -1.948803   -1.137362    1.745970
H        -2.105474    0.630183    1.791591
C        -2.216510   -0.197070   -0.829176
H        -1.919902   -0.148629   -1.876407
H        -2.891093    0.631270   -0.623497
H        -2.735296   -1.140029   -0.669622
O        -0.332241   -2.304258   -0.641215
O        -0.883415    2.270201   -0.171643
H         2.405375   -1.419415   -0.740005
