22
0 1
N        -0.365350    0.151856   -0.090673
P        -1.384894   -1.169630    0.309806
C        -2.891688   -0.121551   -0.063730
C        -2.438371    1.253242   -0.507156
C        -1.017709    1.452329   -0.005029
O        -4.026612   -0.483403    0.044693
C         1.033200    0.064101   -0.049231
H        -1.024082    1.829689    1.026271
H        -0.479430    2.171852   -0.620179
H        -3.141333    2.005986   -0.155228
H        -2.455152    1.254913   -1.600484
C         1.818589    1.169645    0.268197
C         3.201327    1.071651    0.275278
C         3.828629   -0.122740   -0.018673
C         3.050106   -1.229141   -0.325400
C         1.673940   -1.142077   -0.343613
H         1.084505   -2.012111   -0.598039
H         4.907188   -0.195556   -0.008261
H         3.521231   -2.174290   -0.561423
H         1.359058    2.112285    0.524487
H         3.788516    1.945895    0.524401
H        -1.564888   -0.962742    1.714663
