15
0 2
C        -1.469104   -1.518001   -0.032026
C        -0.134144   -1.859332   -0.009173
C         0.889494   -0.901542    0.020328
C        -1.829845   -0.180948   -0.015241
C        -0.861637    0.803561    0.010550
C         0.465291    0.430733    0.007311
H         0.138616   -2.906805   -0.000158
P         2.560638   -1.569658    0.121041
H        -2.232774   -2.281891   -0.056498
H        -1.126849    1.849441    0.022899
N         1.431560    1.537789   -0.051233
O         2.434267    1.371221   -0.711239
O         1.149527    2.555767    0.542198
Cl        -3.496936    0.263633   -0.034860
H         3.207766   -0.424884    0.631218
