22
0 1
C        -1.898884    0.632743   -1.058802
C        -0.578859    0.247210   -1.176346
C        -2.685870    0.190309    0.000840
C        -2.107392   -0.656326    0.934334
C        -0.786391   -1.055120    0.813470
C         0.001681   -0.603092   -0.237166
H         0.011306    0.614688   -2.006287
H        -2.329326    1.293982   -1.801252
H        -2.699703   -1.017562    1.765847
H        -0.363625   -1.730043    1.547356
P         1.746665   -1.124773   -0.313267
C         2.651329    0.443265    0.158411
O         3.687547    0.711933   -0.390915
C         2.092817    1.271212    1.282669
H         1.185109    1.776158    0.949110
H         2.831946    2.006314    1.592446
H         1.811650    0.636922    2.124616
C        -4.124111    0.602670    0.108587
H        -4.242670    1.671592   -0.070215
H        -4.529211    0.375202    1.093298
H        -4.734033    0.080097   -0.630981
H         1.972279   -0.968435   -1.693597
