22
0 1
C        -1.382159   -1.279391    0.001532
C        -0.056632   -1.698883    0.010484
C         0.999540   -0.810602    0.015268
C        -1.652441    0.077465    0.003368
C        -0.610219    1.001993    0.011906
C         0.695881    0.558125    0.013779
H         0.147698   -2.761924    0.014116
P         2.748066   -1.322469   -0.114550
H        -2.173021   -2.012555   -0.001594
H        -0.862949    2.050666    0.017675
O         1.768818    1.384878    0.024627
C         1.555966    2.777841   -0.023092
H         1.014054    3.064438   -0.927399
H         2.541706    3.234192   -0.032636
H         1.004350    3.124309    0.854093
O        -2.897591    0.611277    0.000746
C        -4.000035   -0.267280   -0.006734
H        -4.000568   -0.897573   -0.899489
H        -4.887246    0.359877   -0.009078
H        -4.008808   -0.902469    0.882513
H         2.541041   -2.657949    0.302015
H         3.193525   -0.888827    1.155986
