10
0 1
P         1.207356    0.000000   -0.119065
C        -0.046147    1.275459    0.045546
C        -1.271637    0.726554    0.003178
C        -1.271637   -0.726554    0.003178
C        -0.046147   -1.275459    0.045546
H         0.154799    2.335893    0.042339
H        -2.188849    1.300376   -0.030207
H         0.154799   -2.335893    0.042339
H        -2.188849   -1.300376   -0.030207
H         1.771160    0.000000    1.177022
