17
0 1
C         0.101764   -1.199774   -0.013574
C        -1.279584   -1.195569    0.017850
C        -1.991235    0.000154    0.011900
C         0.791779    0.000677   -0.029178
C         0.099921    1.199745   -0.016218
C        -1.282461    1.196350   -0.000893
H         0.643301   -2.135183   -0.022395
H        -1.810902   -2.138503    0.049404
P        -3.821131   -0.080239    0.077744
C         2.290436    0.001331   -0.006011
F         2.804705   -1.074713   -0.618607
F         2.804057    1.084763   -0.605949
F         2.767907   -0.005979    1.251811
H        -1.813011    2.138842   -0.006010
H         0.640585    2.135637   -0.030941
H        -4.055079   -0.161557   -1.315432
H        -4.061664    1.310222    0.130657
