16
0 1
C         2.510215    0.496040    0.004305
C         2.325749   -0.880806    0.015706
C         1.048788   -1.417464    0.003219
C         1.423067    1.350591   -0.011002
C         0.139298    0.821065   -0.002585
C        -0.044965   -0.569448    0.005302
H         3.513080    0.902043    0.003776
H         3.184963   -1.538076    0.025881
H         0.913733   -2.491606   -0.008581
H         1.569289    2.423288   -0.025321
C        -1.119270    1.555927    0.010804
C        -2.212902    0.786803    0.040822
H        -1.142395    2.638737    0.000307
P        -1.812646   -0.972367   -0.111437
H        -3.222971    1.169089    0.050259
H        -2.045900   -1.374229    1.225808
