15
0 1
C        -1.410823   -0.257487   -0.133255
C        -1.271104    1.249877   -0.169088
P         0.000000   -1.201652    0.629158
C         1.410823   -0.257487   -0.133255
C         1.271104    1.249877   -0.169088
C         0.000000    1.791231    0.473780
H         1.321778    1.533636   -1.224420
H         2.164300    1.663932    0.301920
H         0.000000    2.878325    0.398716
H         0.000000    1.563834    1.543072
H        -2.164300    1.663931    0.301921
H        -1.321778    1.533636   -1.224420
O         2.392120   -0.823022   -0.531454
O        -2.392120   -0.823023   -0.531454
H         0.000000   -2.300234   -0.245462
