12
0 2
C         0.643366    0.400088   -0.000001
P         2.122433   -0.719960    0.000029
O        -0.473770   -0.338997    0.000000
O         0.652330    1.600066   -0.000011
C        -1.718417    0.383656   -0.000011
C        -2.831878   -0.628765   -0.000020
H        -1.745185    1.026389   -0.880054
H        -1.745200    1.026390    0.880032
H        -2.779797   -1.263543   -0.883950
H        -3.794618   -0.117401   -0.000028
H        -2.779811   -1.263544    0.883911
H         3.021203    0.372675   -0.000075
