18
0 1
C        -0.141064    2.198229    0.004800
C        -1.271444    1.393280   -0.007543
C        -1.134848    0.014068   -0.016646
C         1.119862    1.642848    0.015587
C         1.264554    0.259683    0.004922
C         0.139591   -0.551527   -0.022240
H        -0.248671    3.275017    0.009318
H        -2.254351    1.843682   -0.005599
P        -2.560261   -1.136796   -0.056246
O         2.537087   -0.204578    0.011165
H         2.009714    2.256851    0.026521
C         2.743830   -1.599123   -0.006419
H         2.329634   -2.052604   -0.910445
H         2.303104   -2.078692    0.871284
H         3.820244   -1.745486    0.007347
H         0.238178   -1.626763   -0.055948
H        -3.562462   -0.186481   -0.352229
H        -2.851066   -1.141713    1.329361
