18
0 1
C         1.940620   -1.420310    0.050291
C         3.222833   -0.922524    0.183383
C         3.439637    0.447635    0.173802
C         2.369215    1.306316    0.043466
C         1.065739    0.820060   -0.069417
C         0.853134   -0.563975   -0.066331
P        -0.799847   -1.248454   -0.367071
C        -1.898461    0.148840   -0.021466
H         4.442738    0.840964    0.266040
H         4.056627   -1.603964    0.286142
H         2.531114    2.376918    0.035791
S        -3.480547   -0.116895    0.273587
C        -0.034131    1.763289   -0.156501
C        -1.346067    1.479345   -0.133966
H         0.251443    2.808194   -0.200435
H        -2.066461    2.287781   -0.138454
H         1.783385   -2.492188    0.036234
H        -0.987500   -1.972634    0.823795
