19
0 2
C         1.642561   -1.541097    0.000012
C         2.951768   -1.160336    0.000046
C         3.293020    0.205275    0.000073
C         2.316954    1.160211    0.000067
C         0.955768    0.797679    0.000032
C         0.610335   -0.575663    0.000005
H         1.374582   -2.590122   -0.000009
H         3.734575   -1.906930    0.000052
H         4.335199    0.495407    0.000100
H         2.577646    2.211117    0.000088
C        -0.750714   -0.937609   -0.000030
C        -1.758462    0.008011   -0.000037
C        -0.085052    1.759820    0.000024
C        -1.388928    1.384356   -0.000009
H         0.179374    2.810022    0.000045
H        -2.166911    2.135856   -0.000015
H        -1.003533   -1.991848   -0.000051
P        -3.447109   -0.565744   -0.000082
H        -4.047803    0.718784   -0.000076
