15
0 2
C        -0.310721   -0.001832    0.000000
C        -0.776107   -0.748397    1.250911
H        -0.448779   -0.247745    2.163008
H        -0.395575   -1.770054    1.270356
C        -0.776107   -0.748414   -1.250901
H        -0.395576   -1.770072   -1.270332
H        -0.448779   -0.247775   -2.163004
H        -1.868532   -0.796120   -1.270734
H        -1.868532   -0.796102    1.270746
C        -0.888576    1.414071   -0.000010
H        -1.980284    1.374585   -0.000009
H        -0.573812    1.973757   -0.881981
H        -0.573811    1.973769    0.881954
P         1.551234    0.138330    0.000000
H         1.794228   -1.261760    0.000000
