11
0 2
C         1.117064    1.390426   -0.039558
B         0.400737    0.001460    0.015979
H         1.329852    1.660867    1.003790
H         0.525398    2.205325   -0.455319
H         2.084654    1.350493   -0.544411
C         1.242142   -1.316305    0.040663
H         1.443942   -1.569961   -1.009316
H         0.742488   -2.181391    0.475897
H         2.218956   -1.187128    0.510703
P        -1.515524   -0.121768   -0.046929
H        -1.771362    1.096291    0.636071
