10
0 2
C        -0.218477    0.000000    0.557671
C        -1.314910   -0.742881   -0.171450
C        -1.314911    0.742881   -0.171448
H        -2.047674   -1.257950    0.434080
H        -1.047231   -1.256065   -1.084229
H        -2.047675    1.257948    0.434082
H        -1.047232    1.256067   -1.084226
P         1.494406    0.000000   -0.015186
H        -0.303050   -0.000002    1.637397
H         1.166557    0.000006   -1.397955
