13
0 2
N        -2.334638   -0.136850   -0.000032
C        -1.011575   -0.034540   -0.000008
C        -0.303827    1.202357   -0.000008
C        -0.242378   -1.232596   -0.000002
C         1.128164   -1.188295    0.000018
C         1.793460    0.037511    0.000025
C         1.067502    1.228262    0.000010
H         2.874638    0.065603    0.000039
H         1.590349    2.175541    0.000014
H        -0.873022    2.123997   -0.000020
H        -0.782340   -2.169295   -0.000008
H         1.698521   -2.107655    0.000027
H        -2.753750    0.793571   -0.000047
