20
0 1
C        -2.827571   -0.661449    0.407762
B        -1.537039    0.059971   -0.110534
H        -3.091811   -0.210375    1.371613
H        -2.723666   -1.733946    0.576116
H        -3.685864   -0.491238   -0.246555
C        -1.612492    1.508618   -0.694215
H        -2.224678    1.494082   -1.602534
H        -0.649861    1.951513   -0.944989
H        -2.138639    2.173066   -0.002157
P         0.057710   -0.947104   -0.165509
N         1.366893    0.131035   -0.075522
C         2.644926   -0.342587   -0.572469
H         3.194615   -0.938122    0.170042
H         3.272616    0.508301   -0.847855
H         2.494587   -0.957621   -1.457198
C         1.496477    1.001001    1.074398
H         2.227288    1.786153    0.866805
H         1.828306    0.460601    1.972825
H         0.543515    1.476661    1.298195
H        -0.003147   -1.563108    1.116799
