16
0 1
P        -0.227834   -0.210999   -0.781215
N         1.337294   -0.905879   -0.016069
N        -0.292938    1.329714   -0.078186
O         1.567704   -2.071115   -0.236216
O         2.049401   -0.167810    0.644356
O        -0.092708    1.497930    1.280805
O         0.456292    2.260693   -0.804304
C        -1.331654   -1.113562    0.363823
C        -2.792536   -0.745739    0.132389
H        -1.038003   -0.915783    1.393869
H        -1.156626   -2.170611    0.157837
H        -2.975732    0.300734    0.370856
H        -3.434793   -1.353550    0.768612
H        -3.091384   -0.916010   -0.902716
H        -0.130122    3.022196   -0.898787
H         0.833302    1.229385    1.433942
