20
0 1
C         2.069888   -1.148910    0.268254
C         0.750759   -1.346648   -0.086088
C         2.652036    0.110022    0.132954
C         1.871172    1.158063   -0.362743
C         0.554283    0.951050   -0.703349
C        -0.039313   -0.306946   -0.574161
H        -0.034013    1.781404   -1.068078
H         2.662167   -1.975414    0.641026
H         0.321061   -2.336130    0.014388
N        -2.660424    0.135644    0.324376
O        -2.369666   -0.490616    1.542758
O        -2.288679    1.494442    0.445008
N         3.981618    0.309427    0.433986
H         4.424903   -0.367677    1.029766
H         4.280300    1.256025    0.590965
H         2.312484    2.140471   -0.478910
H        -1.415452   -0.371420    1.694061
H        -3.094747    1.920138    0.761018
P        -1.772626   -0.670881   -0.970042
H        -2.001877    0.369925   -1.893457
