12
0 2
P        -1.413950   -0.130973   -0.102516
C         0.370472    0.013340    0.385478
C         1.138731   -1.219070   -0.080330
H         1.132453   -1.293037   -1.169835
H         0.707423   -2.138123    0.317165
C         1.006916    1.298543   -0.138811
H         2.180104   -1.168464    0.242694
H         0.387668    0.043086    1.479786
H         2.054403    1.355976    0.165728
H         0.977208    1.332760   -1.229443
H         0.496750    2.184605    0.238201
H        -1.823475    1.090912    0.495421
