12
0 1
N        -0.347179    1.506815    0.292835
P        -0.013179    0.076645   -0.559921
C         1.517526   -0.557911    0.241515
H         1.426235   -0.595777    1.329980
C        -1.214238   -1.054687    0.237563
H        -1.136856   -1.032350    1.327097
H        -1.037972   -2.075887   -0.102700
H        -2.224772   -0.767230   -0.048425
H         2.358810    0.083841   -0.019364
H         1.736552   -1.562885   -0.122842
H        -0.131967    2.369306   -0.177024
H        -0.181823    1.559188    1.287783
