7
0 1
P         0.083719   -0.142986    0.860723
N        -0.576358    1.363845    0.535953
Cl        1.769543   -0.243001   -0.336154
Cl       -1.188261   -1.285682   -0.284063
O        -0.659356    1.843642   -0.779881
H        -1.587549    1.730733   -1.017665
H        -0.240679    2.105605    1.137892
