8
0 2
P         0.691810   -0.852550    0.000018
N        -0.865014    0.126867   -0.000028
O        -1.868461   -0.560928   -0.000126
O        -0.849728    1.338993   -0.000003
C         1.854126    0.536544    0.000100
H         1.716518    1.164021    0.881360
H         1.716600    1.164057   -0.881148
H         2.865580    0.128311    0.000138
