11
0 1
P         0.398693    0.331015   -0.800474
N        -1.217743    0.248819   -0.211787
O        -1.369267    0.416657    1.170762
C         0.930887    1.824562    0.087259
H         0.764662    1.745453    1.157855
H         0.376500    2.673796   -0.314782
Cl        1.351739   -1.123264    0.380138
H         1.990136    1.975201   -0.116999
H        -2.196380    0.906737    1.258027
O        -1.830547   -0.942348   -0.590252
H        -1.357504   -1.654499   -0.124460
