15
0 2
C         0.703819    1.835110    0.004025
C        -0.608645    1.406315    0.005320
C         1.749018    0.928911   -0.003948
C         1.492975   -0.442748   -0.008968
C         0.172777   -0.872720   -0.008111
C        -0.890978    0.034712   -0.000846
H        -0.035806   -1.936885   -0.016668
H         2.773328    1.280607   -0.011032
H         0.922512    2.895050    0.009069
H        -1.416237    2.124579    0.011636
N         2.536862   -1.354185   -0.066464
H         2.323475   -2.288934    0.237830
H         3.427890   -1.026750    0.265996
P        -2.549875   -0.634736    0.002231
H        -3.218872    0.615184    0.010130
