21
0 1
C         2.365013   -1.467333   -0.084147
C         1.077066   -1.387274    0.415083
C         2.999332   -0.313334   -0.504012
C         2.346684    0.904581   -0.420257
C         1.056242    1.004954    0.081462
C         0.409352   -0.167158    0.505691
H         2.866114   -2.423970   -0.143948
H         0.576749   -2.289792    0.741424
N        -2.302286   -0.390910   -0.200520
O        -2.373659    0.812235   -0.943355
O        -1.858140   -1.396619   -1.053108
H         2.852208    1.803997   -0.748491
H         4.006580   -0.357698   -0.897061
C         0.388891    2.348680    0.153049
H         1.075592    3.134686   -0.155816
H         0.051331    2.568355    1.166655
H        -0.489920    2.385616   -0.490310
H        -0.947769   -1.170363   -1.314040
H        -3.276826    0.821971   -1.281186
P        -1.283915   -0.078671    1.199440
H        -1.340424   -1.419977    1.625310
