11
0 1
N         0.346748    0.024340   -0.255411
N         0.892153    1.289993    0.039473
P        -1.327752   -0.173350   -0.009187
C         1.211339   -1.098273    0.047686
H         2.137877   -1.015629   -0.524902
H         0.719878   -2.029091   -0.230511
H         1.474315   -1.149607    1.114174
H         1.656065    1.478562   -0.599339
H         1.257253    1.309851    0.990396
H        -1.757062    0.994867   -0.672128
H        -1.512381    0.400613    1.285563
