11
0 1
N        -1.031120   -0.467184    0.492243
F        -2.347498   -0.062463    0.222796
F        -1.014906   -1.777327    0.041316
P        -0.112049    0.459191   -0.771271
C        -0.320459    2.080758    0.013287
H        -1.316964    2.448365   -0.224351
H         0.412342    2.760697   -0.420629
H        -0.188172    2.035850    1.091845
N         1.533814    0.185965   -0.181688
F         1.874594   -1.122226   -0.480399
F         1.618635    0.223261    1.201686
