8
0 2
C         1.427207   -0.911467   -0.000001
C         0.431508    0.218834    0.000000
H         2.438511   -0.511993    0.000021
H         1.276014   -1.542890   -0.877516
H         1.275986   -1.542923    0.877485
O         0.769128    1.375707    0.000002
P        -1.365021   -0.286960    0.000002
H        -1.820507    1.052350   -0.000028
