11
0 1
N        -0.127575    0.412197   -0.000023
P        -1.761661   -0.154395    0.000006
N         0.942479   -0.451027   -0.000003
O         0.695766   -1.638199   -0.000002
O         2.047896    0.049708    0.000011
C         0.208984    1.827572   -0.000004
H        -0.726181    2.379637   -0.000044
H         0.787456    2.089905   -0.884177
H         0.787382    2.089905    0.884219
H        -1.665624   -1.114585    1.029733
H        -1.665643   -1.114624   -1.029687
