19
0 1
P        -0.214087    0.085044   -0.864418
N        -1.305460    1.308969    0.047505
N        -0.607604   -1.366643   -0.082532
O        -1.140663    2.475220   -0.220655
O        -2.127009    0.887295    0.844716
O        -0.658103   -1.437457    1.298732
O        -1.738699   -1.965272   -0.646470
C         1.284708    0.539924    0.076151
C         2.482127   -0.321796   -0.313808
H         1.090607    0.467730    1.146389
H         1.471273    1.588808   -0.164390
C         3.750444    0.124183    0.397218
H         2.631347   -0.277888   -1.395818
H         2.269497   -1.363904   -0.070804
H         3.999115    1.157163    0.148778
H         4.597461   -0.501030    0.115252
H         3.634241    0.060656    1.480137
H        -1.486822   -2.889343   -0.770133
H        -1.391844   -0.846289    1.554089
