12
0 1
N         1.315625    0.951927   -0.199529
P         0.797852   -0.634211    0.119550
C        -1.791173    0.585126    0.174926
C        -0.971939   -0.570976   -0.377591
H        -1.399206   -1.528948   -0.066838
H        -0.990526   -0.565376   -1.469615
H        -1.389610    1.543250   -0.156922
H        -2.827911    0.534577   -0.161836
H        -1.794587    0.578432    1.266440
H         0.545105   -0.584272    1.520114
H         2.284274    1.053940   -0.448045
H         0.973973    1.733172    0.336142
