19
0 1
N         2.028786    0.063369    1.143856
C        -0.037305    0.001688   -0.682476
C        -0.728443    1.188832   -0.009960
C        -0.778219   -1.238359   -0.137163
C        -2.111835   -0.719066    0.444335
H        -0.189166   -1.723724    0.641283
H        -0.931151   -1.975020   -0.924883
C        -2.189961    0.757172    0.041631
H        -2.099886   -0.801693    1.532123
H        -2.970518   -1.290292    0.093037
H        -2.793667    1.352145    0.727403
H        -2.633056    0.855309   -0.952644
H        -0.565105    2.125539   -0.543320
H        -0.354899    1.314099    1.010245
P         1.792202   -0.133153   -0.526026
H        -0.210819    0.075340   -1.761605
H         2.071042    1.171602   -1.019153
H         1.862009    0.944366    1.601475
H         2.805258   -0.435564    1.541229
