13
0 2
C        -0.550995    0.002240   -0.000030
C         0.169112    1.204269   -0.000007
C         0.172281   -1.198998    0.000026
C         1.549420    1.202476    0.000069
C         2.246499    0.003017    0.000124
C         1.552506   -1.197697    0.000102
H         2.092078   -2.135478    0.000144
H        -0.363550   -2.140347    0.000009
H         2.087893    2.141018    0.000086
H         3.328282    0.004515    0.000184
H        -0.365750    2.144741   -0.000049
P        -2.336488   -0.094116   -0.000127
H        -2.564568    1.305448   -0.000159
