13
0 2
N         2.334638   -0.136850    0.000044
C         1.011575   -0.034539    0.000019
C         0.242379   -1.232596    0.000003
C         0.303827    1.202357    0.000006
C        -1.067502    1.228261   -0.000019
C        -1.793460    0.037511   -0.000033
C        -1.128164   -1.188296   -0.000022
H        -2.874638    0.065603   -0.000052
H        -1.698521   -2.107656   -0.000033
H         0.782341   -2.169295    0.000012
H         0.873021    2.123997    0.000016
H        -1.590350    2.175541   -0.000028
H         2.753750    0.793571    0.000052
