9
0 2
N         0.000000   -0.629723    0.000001
C        -1.185374    0.168651    0.000005
H        -1.218360    0.826315   -0.880239
H        -1.218159    0.826712    0.879959
H        -2.073454   -0.460900    0.000231
C         1.185374    0.168651   -0.000004
H         2.073454   -0.460900   -0.000177
H         1.218337    0.826364    0.880204
H         1.218182    0.826663   -0.879994
