7
0 2
C         0.539977    0.511192    0.000019
C         1.645895   -0.251700   -0.000006
H         2.637408    0.182071    0.000008
H         1.584780   -1.333850   -0.000044
P        -1.079830   -0.201149   -0.000008
H         0.655208    1.589188    0.000053
H        -1.795184    1.022871    0.000030
