14
0 1
P        -0.612058   -0.023260   -0.574402
N         0.879635   -0.027951    0.405279
O         1.629844   -1.155850    0.039485
O         1.601079    1.114568   -0.016767
C        -1.401584    1.428847    0.201370
H        -0.920167    2.339860   -0.146751
H        -1.346880    1.379603    1.289166
C        -1.451097   -1.368018    0.332720
H        -2.482062   -1.432629   -0.017653
H        -1.442500   -1.194577    1.408609
H        -0.959546   -2.314890    0.118880
H        -2.448367    1.456445   -0.103940
H         1.783772   -1.090547   -0.919568
H         2.107880    1.366572    0.764045
