10
0 1
P         0.060959    0.648541   -0.822153
N        -1.340182    0.234820    0.049532
N         1.189978   -0.608056   -0.009620
F         0.512264    1.873600    0.044081
O         0.758092   -1.737946   -0.203045
O         2.201418   -0.327114    0.565485
O        -1.989188   -0.859573   -0.500032
O        -1.128523    0.058529    1.414519
H        -1.831122    0.564310    1.842690
H        -1.376597   -1.613336   -0.401914
