15
0 1
C         0.095732   -0.207769   -0.069080
C        -0.397990    1.085146   -0.147492
C        -1.766341    1.288177   -0.076229
N        -2.650511    0.309554    0.059323
C        -2.175087   -0.929215    0.128503
C        -0.829307   -1.235914    0.069091
H         0.274853    1.924451   -0.257389
H        -2.169036    2.293956   -0.130874
H        -2.909285   -1.719403    0.241474
H        -0.512145   -2.269537    0.137518
N         2.612624    0.812025    0.306584
P         1.872461   -0.589015   -0.263964
H         1.931311   -1.458753    0.855042
H         3.467242    1.093448   -0.139020
H         2.533323    1.117461    1.262593
