19
0 1
C        -2.287657    0.533726    0.272262
P        -1.842622   -1.051305   -0.596229
O        -2.988944    1.373776   -0.217752
O        -1.837592    0.593108    1.533354
N        -0.277996   -1.399777   -0.089758
C         0.871235   -0.601380   -0.088358
H        -2.165562    1.420170    1.921299
C         0.888049    0.673319   -0.641900
C         2.039784   -1.105208    0.478440
C         3.195715   -0.351325    0.490038
C         3.212683    0.919563   -0.063036
C         2.053648    1.420770   -0.626277
H         2.047836    2.411094   -1.062190
H        -0.002436    1.090543   -1.088982
H         2.035324   -2.097697    0.913087
H         4.092140   -0.761444    0.936197
H         4.118296    1.509822   -0.053458
H        -1.600310   -0.388836   -1.816170
H        -0.168433   -2.287492    0.370119
