11
0 1
C        -2.081936   -0.491411    0.025954
C        -0.776692    0.253808   -0.018663
H        -2.421540   -0.645708   -1.000469
H        -2.828732    0.099557    0.552452
H        -1.975418   -1.471384    0.491681
N         1.954524    0.403299    0.126886
O        -0.719044    1.457870   -0.030778
P         0.777238   -0.773256   -0.117605
H         0.578547   -1.266856    1.197598
H         1.624636    1.291776    0.483382
H         2.586385    0.531009   -0.646293
