12
0 1
C         1.380527   -0.043322    0.602622
N        -1.256353   -0.117730   -0.248625
O        -1.242524    1.185790   -0.757084
O        -1.511373   -0.038380    1.138582
C         2.406998    0.665485    0.154121
H         3.066511    1.205740    0.823226
H         2.632357    0.723948   -0.904840
H        -2.472517   -0.099546    1.198041
H        -0.547806    1.669936   -0.277904
P         0.284615   -0.898649   -0.572035
H         1.171479   -0.085679    1.665244
H        -0.018759   -2.022817    0.224693
