9
0 2
C        -0.134993    0.496022   -0.000001
N        -1.222571   -0.435835   -0.000003
C         1.210277   -0.201123    0.000001
H        -0.223930    1.163018    0.871682
H        -0.223930    1.163008   -0.871692
H         1.309502   -0.834750    0.881122
H         2.027384    0.521229   -0.000072
H         1.309438   -0.834860   -0.881046
H        -2.092167    0.103813    0.000021
