20
0 1
C        -0.949886    0.053452   -0.114844
N         1.839473   -0.120721    0.171491
C         1.884004    0.955137    1.141753
H         1.422607    1.872650    0.764131
H         2.923626    1.169622    1.400125
H         1.366041    0.658004    2.052715
O        -0.800971    1.146260   -0.603895
C        -2.295970   -0.456489    0.347148
C         2.690948    0.089148   -0.983981
H         2.632606   -0.769861   -1.650046
H         3.729677    0.203862   -0.663503
H         2.405866    0.983289   -1.549092
C        -3.465364    0.358840   -0.172454
H        -2.272639   -0.450945    1.441901
H        -2.381541   -1.509964    0.063829
H        -3.368148    1.402602    0.119891
H        -4.406943   -0.025806    0.218143
H        -3.507926    0.328837   -1.260779
P         0.502623   -1.115568    0.002066
H         0.266502   -1.454342    1.356684
