8
0 1
P         0.232898    0.116348   -0.807194
N        -1.080630   -0.777885   -0.112934
O        -1.103380   -0.836917    1.276565
O        -2.239844   -0.110274   -0.552180
Cl        0.304109    1.806816    0.362016
Cl        1.744047   -0.991456    0.022972
H        -2.796706   -0.808345   -0.917435
H        -1.205219   -1.775287    1.476016
