9
0 1
P        -1.135765   -0.015266    0.012786
N         0.446735    0.568116   -0.088127
C         1.612394   -0.284111    0.013554
H         2.518345    0.297007   -0.160375
H         1.563379   -1.061000   -0.750794
H         1.698244   -0.778673    0.988629
H        -1.023077   -1.028082    1.012616
H        -1.088288   -0.963618   -1.039301
H         0.566372    1.491221    0.292993
