7
0 2
N         0.000001   -0.602049    0.000001
N        -1.098041    0.210676   -0.087543
N         1.098041    0.210676    0.087542
H         1.932819   -0.345207   -0.024203
H         1.075616    0.977650   -0.582084
H        -1.075619    0.977643    0.582093
H        -1.932819   -0.345208    0.024196
