8
0 1
C         1.315368    0.351029   -0.000019
N         0.033386    0.821078   -0.000085
P        -1.396885   -0.148394   -0.000024
O         1.614227   -0.813331    0.000159
H         2.067942    1.158172   -0.000143
H        -1.037828   -1.050247    1.026166
H        -1.037728   -1.050537   -1.025926
H        -0.078837    1.821446   -0.000297
