15
0 1
O         1.567633   -1.013609   -0.281940
C         2.672099   -0.292571   -0.535194
C         0.683269   -0.197768    0.380779
C         2.539158    0.969043   -0.065508
C         1.248597    1.029442    0.526945
H         3.269438    1.757036   -0.131349
H         3.465842   -0.803738   -1.051551
H         0.780678    1.876481    0.997485
N        -2.052050   -0.006806   -0.116139
O        -1.877748   -0.251755   -1.481900
O        -1.889058    1.378074    0.099150
H        -2.783545    1.728921    0.007780
H        -0.995664    0.087055   -1.714599
P        -0.901194   -0.955149    0.812420
H        -1.119849   -0.221427    1.994305
