19
0 2
N        -2.270780    0.501639   -0.000412
C         0.074978   -0.259701    0.000131
C         0.504785    1.057269    0.000145
C         1.021479   -1.276757   -0.000020
C         2.373101   -0.985539   -0.000140
C         2.797400    0.333902   -0.000119
C         1.859716    1.350938    0.000019
H         3.854207    0.565676   -0.000220
H         2.182644    2.383928    0.000025
H        -0.232423    1.846912    0.000221
H         0.695775   -2.310958   -0.000053
H         3.097753   -1.789229   -0.000264
C        -3.645716    0.115964   -0.000118
H        -3.884658   -0.496081    0.880657
H        -3.884621   -0.497811   -0.879698
H        -4.289193    0.993625   -0.000975
C        -1.390090   -0.618795    0.000363
H        -1.608962   -1.256222   -0.871394
H        -1.608973   -1.254993    0.873021
