7
0 1
N        -1.502489    0.741284    0.050467
C         1.145989   -0.000133    0.005093
N         2.225176    0.389729   -0.013422
P        -0.545922   -0.627774   -0.097102
H        -0.542824   -1.059636    1.244854
H        -1.903479    1.096551   -0.801138
H        -1.299615    1.463403    0.722943
