17
0 1
C        -2.835942    0.277372   -0.298237
C        -2.072632    1.224725    0.362800
C        -0.755149    0.949548    0.688686
C        -2.281090   -0.948380   -0.628670
C        -0.968193   -1.225381   -0.292279
C        -0.187251   -0.277688    0.363486
H        -3.865063    0.492839   -0.553856
H        -2.502783    2.183096    0.622356
H        -0.157408    1.698408    1.190976
H        -2.875954   -1.693186   -1.140618
H        -0.541455   -2.189459   -0.539991
N         2.334682   -0.161725   -0.641799
O         2.293423    1.238137   -0.887122
H         1.742453    1.319372   -1.673315
P         1.536094   -0.702362    0.769946
H         1.764104    0.389975    1.646487
H         3.306087   -0.439828   -0.686369
