8
0 2
C        -0.431495    0.218825    0.000000
C        -1.427226   -0.911450    0.000000
H        -1.276041   -1.542891   -0.877503
H        -2.438513   -0.511933    0.000006
H        -1.276033   -1.542899    0.877495
O        -0.769110    1.375704    0.000000
P         1.365019   -0.286967    0.000000
H         1.820506    1.052342    0.000000
