17
0 1
C        -2.146292   -0.003311    0.153328
C        -1.473894    1.199174    0.037955
C        -0.128108    1.191927   -0.264754
C        -1.467325   -1.191466   -0.031422
C        -0.117151   -1.167257   -0.327460
C         0.589094    0.019053   -0.450943
F        -3.438960   -0.014948    0.439320
F        -2.126789    2.341967    0.213908
F         0.487989    2.367578   -0.374279
F        -2.114820   -2.345491    0.081865
F         0.485164   -2.343227   -0.492055
N         3.014150    0.454515    0.666281
O         2.906996   -0.589513    1.620455
H         2.394436   -0.201032    2.338316
P         2.368786    0.127666   -0.876719
H         2.564766   -1.267451   -0.970541
H         3.982781    0.746373    0.636349
