10
0 1
P        -0.235679   -0.223522   -0.880824
N         0.960011   -1.060787    0.003675
N        -0.065820    1.433434    0.015610
Cl       -1.895407   -0.891572    0.043739
O         1.096960    1.811832   -0.044507
O         0.911643   -0.884428    1.384022
O         2.229971   -0.777193   -0.480687
O        -0.976216    2.037492    0.501873
H         2.377990    0.171079   -0.301346
H         1.020918   -1.771684    1.749534
