17
0 1
C         2.617121    0.340094    1.065266
C         2.410581   -0.099927   -0.376191
H         1.841516    1.039905    1.378192
H         3.578782    0.837562    1.190100
H         2.594386   -0.514251    1.744988
C         1.086468   -0.820143   -0.587079
H         3.222187   -0.763563   -0.680259
H         2.444033    0.767306   -1.036201
C        -0.121187    0.075390   -0.445598
H         0.986617   -1.673559    0.090324
H         1.028617   -1.231642   -1.600239
O        -0.103248    1.245873   -0.735959
N        -2.666929    0.617593    0.402062
P        -1.689432   -0.730403    0.157857
H        -1.126207   -0.921271    1.446316
H        -3.499547    0.640772   -0.163161
H        -2.192317    1.512184    0.396931
