18
0 1
N        -1.232967    0.380605   -0.000005
C         0.154538    0.154610   -0.000006
C         1.051849    1.223016   -0.000034
C         0.666080   -1.142679    0.000017
C         2.033152   -1.358712    0.000009
C         2.920026   -0.298505   -0.000021
C         2.413666    0.990702   -0.000042
H         3.987161   -0.472403   -0.000027
H         3.089018    1.836639   -0.000065
H         0.665464    2.228893   -0.000049
H         0.002445   -1.992946    0.000043
H         2.402550   -2.375984    0.000027
N        -1.640822    1.728094    0.000038
P        -2.469330   -0.795474    0.000008
H        -2.189671    1.932880    0.824482
H        -2.189749    1.932905   -0.824348
H        -2.023320   -1.664666    1.028592
H        -2.023292   -1.664693   -1.028538
