10
0 2
C        -0.218475    0.000000    0.557687
C        -1.314909   -0.742875   -0.171446
C        -1.314900    0.742878   -0.171461
H        -1.047193    1.256068   -1.084229
H        -2.047672    1.257963    0.434046
H        -2.047689   -1.257936    0.434072
H        -1.047215   -1.256089   -1.084205
P         1.494398    0.000002   -0.015189
H        -0.303047    0.000013    1.637413
H         1.166544   -0.000055   -1.397955
