12
0 2
C        -0.540254    0.000814   -0.000017
C         0.195798   -1.187655    0.000043
C         1.576008   -1.131904    0.000087
N         2.264197    0.004203    0.000071
C         1.571216    1.138069    0.000012
C         0.190993    1.191217   -0.000031
H        -0.305529   -2.147028    0.000055
H         2.158685   -2.046246    0.000131
H         2.151086    2.054329    0.000005
H        -0.311393    2.148833   -0.000075
P        -2.330321   -0.093947   -0.000070
H        -2.549988    1.306656   -0.000119
