7
0 1
P        -0.635377   -0.024899    0.544259
N         1.032063   -0.015790    0.634283
F        -0.934417   -1.107424   -0.577130
F        -0.802899    1.225292   -0.416678
O         1.795523   -0.100592   -0.542994
H         2.122485    0.795774   -0.683601
H         1.455407   -0.567833    1.367960
