8
0 2
N        -0.062451   -0.609812   -0.034800
N        -1.125531    0.195902    0.079230
C         1.152335    0.154603    0.004746
H         1.158610    0.956085   -0.749500
H         1.994512   -0.505990   -0.187279
H         1.294044    0.622057    0.987302
H        -1.998948   -0.255787   -0.139008
H        -1.046355    1.153386   -0.250994
