15
0 1
N         1.856699    1.042258   -0.117668
P         1.419891   -0.580326    0.080273
C        -2.753157    0.182097   -0.081772
C        -0.376783   -0.671626   -0.332055
C        -1.294760    0.352031    0.319344
H        -0.689164   -1.685124   -0.057483
H        -0.460359   -0.615658   -1.421425
H        -0.967622    1.359768    0.049207
H        -1.200980    0.278618    1.406238
H        -3.124535   -0.804159    0.202185
H        -2.876316    0.281988   -1.161700
H        -3.388566    0.928286    0.396848
H         1.236671   -0.585649    1.486151
H         1.278560    1.807998    0.185563
H         2.445265    1.268003   -0.899100
