22
0 1
N        -2.188451   -0.148088    0.169120
C        -1.906979   -0.915179    1.362769
C         0.532299   -0.088309   -0.521403
C        -2.837876    1.119584    0.433582
H        -3.050437    1.629674   -0.504260
H        -3.783407    0.950942    0.955067
H        -2.227418    1.786164    1.057931
H        -1.577489   -1.918175    1.095238
H        -2.813925   -1.004327    1.965267
H        -1.127798   -0.457380    1.985696
C         1.036466    1.188945   -0.287368
C         1.344044   -1.181627   -0.238938
C         2.622426   -1.006444    0.264520
C         3.103524    0.268938    0.506324
C         2.306180    1.368325    0.231879
H         2.680092    2.367777    0.411732
H         0.428159    2.054400   -0.522781
H         3.242029   -1.868505    0.474694
H         4.100175    0.406954    0.904228
H         0.972414   -2.183911   -0.412599
P        -1.172333   -0.240175   -1.186553
H        -1.138752   -1.649768   -1.303944
