15
0 2
C        -0.405531   -1.210183   -0.000190
C         0.971891   -1.202262   -0.000183
C        -1.074034    0.000352   -0.000007
C        -0.404864    1.210892    0.000185
C         0.972695    1.206311    0.000197
C         1.691902    0.002365    0.000011
H         1.505111    2.147265    0.000351
H        -0.968625   -2.130616   -0.000333
H         1.507414   -2.142911   -0.000330
N        -2.542157    0.001029   -0.000016
O        -3.103563    1.075792    0.000045
O        -3.104457   -1.073178   -0.000085
H        -0.968863    2.130880    0.000321
P         3.478119   -0.092333    0.000007
H         3.700072    1.307427    0.000238
