9
0 2
P         0.000000    0.700829   -0.000012
C        -1.392347   -0.500215   -0.000006
H        -2.343265    0.030324   -0.000026
H        -1.354964   -1.142611    0.882744
C         1.392347   -0.500215    0.000023
H         1.354945   -1.142611    0.882773
H         2.343265    0.030324    0.000025
H         1.354964   -1.142642   -0.882705
H        -1.354945   -1.142642   -0.882734
