15
0 2
N        -1.817102   -0.664351   -0.085325
C        -0.508676   -0.270892   -0.054643
C        -0.057401    1.060374   -0.070219
C         0.447111   -1.299835   -0.010216
C         1.790576   -1.010149    0.045999
C         2.226051    0.310933    0.046995
C         1.295226    1.335934   -0.018633
H         3.282761    0.537210    0.086912
H         1.628907    2.365276   -0.041386
H        -0.755840    1.879168   -0.171912
H         0.090122   -2.320523   -0.012596
H         2.511299   -1.816191    0.087185
N        -2.722092    0.308529    0.035954
H        -2.486727    1.130745    0.579709
H        -3.653487   -0.043121    0.181991
