12
0 2
P         0.535625   -0.680190   -0.000006
C        -0.794676    0.598002   -0.000017
C        -2.192490   -0.006441    0.000014
H        -0.656038    1.241163   -0.874587
H        -0.656019    1.241212    0.874514
H        -2.351500   -0.631621    0.879490
H        -2.351499   -0.631716   -0.879395
C         1.993586    0.440201    0.000011
H         1.993912    1.083518    0.882749
H         1.993910    1.083552   -0.882702
H         2.912487   -0.143909   -0.000001
H        -2.958143    0.770087   -0.000029
