22
0 1
C        -0.879694   -1.567748   -0.040907
C        -2.199669   -1.908558    0.003517
C        -3.189941   -0.912028    0.063767
C        -2.831372    0.402631    0.069058
C        -1.473393    0.786899    0.019229
C        -0.471542   -0.213874   -0.029331
H        -0.135563   -2.350803   -0.097725
H        -2.488396   -2.951113   -0.010302
H        -4.233978   -1.193060    0.101006
H        -3.586772    1.177571    0.108942
C         0.900545    0.175043   -0.067543
C         1.217942    1.504487   -0.087464
C        -1.094284    2.148538    0.010302
C         0.218983    2.496548   -0.047967
H        -1.867510    2.905597    0.045528
H         0.507244    3.539497   -0.061157
H         2.257460    1.798557   -0.135736
N         3.597271   -0.241226    0.226284
P         2.207339   -1.104503   -0.189542
H         1.882834   -1.754272    1.030079
H         3.739210    0.126833    1.152780
H         4.449037   -0.514313   -0.230236
