11
0 2
C         0.114531    0.284551    0.000020
O        -0.126526    1.467869    0.000099
C        -0.972994   -0.764783   -0.000060
C        -2.372699   -0.182587   -0.000019
H        -0.807110   -1.409086    0.868534
H        -0.807106   -1.408952   -0.868752
H        -2.535090    0.442237    0.876902
H        -3.116931   -0.978357   -0.000089
H        -2.535080    0.442383   -0.876838
P         1.902153   -0.215804   -0.000006
H         1.668205   -1.617210   -0.000104
