17
0 1
P        -0.576968    1.106237   -0.224527
N        -1.257958   -0.467652    0.258831
O        -2.512244   -0.158022    0.830304
O        -1.493834   -1.198764   -0.916187
C         1.142015    0.561936   -0.554892
C         1.872446   -0.169272    0.563111
H         1.684460    1.468462   -0.842733
H         1.098030   -0.056492   -1.454968
C         3.274346   -0.596788    0.155425
H         1.288197   -1.040482    0.859734
H         1.924972    0.480101    1.440774
H         3.243478   -1.275127   -0.699062
H         3.782916   -1.112675    0.970454
H         3.884861    0.263301   -0.126847
H        -2.649736   -0.859413    1.478084
H        -2.091262   -0.662336   -1.467332
H        -0.389895    1.553697    1.103181
