9
0 2
P         0.000000    0.700829   -0.000005
C         1.392347   -0.500215   -0.000014
H         1.354967   -1.142619    0.882730
H         2.343265    0.030324   -0.000031
H         1.354943   -1.142634   -0.882747
C        -1.392347   -0.500215    0.000021
H        -1.354967   -1.142631   -0.882715
H        -2.343265    0.030324    0.000031
H        -1.354943   -1.142622    0.882762
