8
0 1
C        -1.146009   -0.403196    0.026863
N         1.259383    0.913272    0.118866
O        -1.688438    0.666057   -0.046386
P         0.677981   -0.644056   -0.124036
H        -1.736201   -1.333393    0.172317
H         0.746871   -1.204170    1.177916
H         1.749121    1.313172   -0.663958
H         0.638366    1.583041    0.552121
