9
0 2
P         0.000000    0.700829   -0.000001
C         1.392347   -0.500215   -0.000014
H         2.343265    0.030324   -0.000027
H         1.354944   -1.142629   -0.882750
C        -1.392347   -0.500215    0.000016
H        -1.354944   -1.142626    0.882754
H        -1.354965   -1.142627   -0.882723
H        -2.343265    0.030324    0.000027
H         1.354965   -1.142624    0.882727
