10
0 2
O        -0.459863   -1.068688    0.000006
C        -1.757251   -0.714472   -0.000023
C         0.289148    0.082256    0.000003
C        -1.887995    0.635598   -0.000038
C        -0.574095    1.154803   -0.000021
H        -2.812777    1.186456   -0.000058
H        -2.470819   -1.519846   -0.000027
H        -0.279898    2.190203   -0.000027
P         2.037580   -0.103455    0.000034
H         2.259862    1.295416    0.000027
