12
0 1
O        -0.235500    0.346481   -0.797926
P        -1.644047    0.085025   -0.009080
O        -2.543210    1.142219   -0.425479
O        -1.263526   -0.069056    1.504492
O         0.722648   -0.666509   -0.468351
C         1.845350   -0.015952   -0.025794
F         2.707282   -0.970395    0.266118
F         1.608678    0.713890    1.063254
F         2.357972    0.784249   -0.945486
H        -1.011445    0.756584    1.934772
O        -2.036005   -1.402549   -0.315413
H        -2.620600   -1.490623   -1.077379
