14
0 2
O         0.000000    0.265312    1.421247
C         0.000000   -0.024825    0.077038
C        -0.000001    1.374655   -0.577586
H         0.887001    1.933075   -0.285391
H        -0.887004    1.933074   -0.285391
C        -1.265513   -0.787510   -0.310214
H        -1.295220   -0.971898   -1.384710
H        -2.149660   -0.219688   -0.023983
H        -1.294175   -1.749365    0.201867
C         1.265514   -0.787508   -0.310214
H         2.149661   -0.219685   -0.023982
H         1.295222   -0.971896   -1.384710
H         1.294178   -1.749363    0.201867
H        -0.000001    1.244370   -1.659686
