9
0 1
O         0.907592   -0.757333   -0.496631
P        -0.359634    0.034045    0.112958
O        -0.261851    0.283258    1.545107
O        -1.508101   -0.908414   -0.403258
O         2.081505   -0.012016   -0.144054
H         2.205624   -0.265634    0.785066
O        -0.542328    1.300448   -0.799726
H        -0.495721    2.124344   -0.302262
H        -1.729922   -1.616943    0.211329
