8
0 1
Cl         2.044297    0.000001   -0.005056
O         0.610708    0.000030   -0.886554
P        -0.780924    0.000001   -0.065410
O        -0.684546   -1.198336    0.950415
O        -1.866513    0.000039   -1.028087
O        -0.684548    1.198266    0.950499
H        -1.019996    2.026448    0.588530
H        -1.019994   -2.026492    0.588389
