12
0 1
O        -0.535048   -0.157441    0.907701
P         0.702352   -0.053590   -0.116160
O         0.466622   -0.555962   -1.463149
O         1.159883    1.449964   -0.019422
O        -1.614202    0.603604    0.332026
C        -2.556343   -0.330632   -0.165761
H        -3.367253    0.290998   -0.543229
H        -2.919435   -0.970997    0.638631
H        -2.125918   -0.921172   -0.974089
H         1.221083    1.867999   -0.885303
O         1.780796   -0.810796    0.749364
H         1.929890   -1.714139    0.448802
