22
0 1
C        -3.101295   -0.078362   -0.001235
C        -2.231981   -1.149426   -0.038449
C        -0.874524   -0.895969   -0.049188
C        -2.669364    1.233116    0.026115
C        -1.311620    1.476340    0.014368
C        -0.415854    0.414770   -0.023995
H        -2.622273   -2.154900   -0.057388
H        -0.168988   -1.712128   -0.077015
H        -3.391156    2.034234    0.056185
H        -0.929478    2.486513    0.035905
C         1.030887    0.730266   -0.034677
O         1.810868   -0.365393   -0.095885
P         3.436408   -0.313563    0.121508
O         3.797398   -0.362631    1.525154
O         1.477133    1.848055   -0.005394
N        -4.552514   -0.345738    0.010133
O        -4.906903   -1.503199   -0.014491
O        -5.295388    0.609627    0.042905
O         3.879378   -1.543968   -0.748379
H         4.299649   -2.229096   -0.215383
O         3.891330    0.896524   -0.757125
H         3.345694    1.682460   -0.567763
