12
0 1
O        -0.587303    0.612625   -0.688192
P        -1.921651   -0.012428    0.015813
O        -2.957474    0.993683   -0.108388
O        -2.153509   -1.410027   -0.659293
O         0.500447   -0.330259   -0.633782
C         1.551119    0.316592   -0.037078
Cl         2.848405   -0.856334    0.013732
F         1.242113    0.723898    1.200200
F         1.916282    1.395735   -0.718746
H        -2.776645   -1.372874   -1.394366
O        -1.466814   -0.499939    1.435756
H        -1.236513    0.212060    2.044312
