13
0 1
C         2.812519   -0.806159   -0.027843
C         1.603885    0.063914   -0.018429
H         2.798461   -1.443981   -0.910655
H         2.787660   -1.456877    0.846322
H         3.707161   -0.192565   -0.012692
O         0.465456   -0.656413   -0.134865
O         1.606554    1.262602    0.074112
P        -1.028430   -0.031338    0.108896
O        -1.425114   -0.101782    1.503027
O        -1.882431   -0.900127   -0.885279
H        -2.515544   -1.457634   -0.418270
O        -0.977727    1.353063   -0.614624
H        -0.143620    1.815850   -0.399473
