8
0 1
C         1.593348   -0.204680   -0.021119
O         0.416761    0.577843    0.078740
H         1.786606   -0.744495    0.909674
H         2.420552    0.476452   -0.210785
H         1.525045   -0.925290   -0.840456
P        -1.024695   -0.196344   -0.083083
H        -1.790385    0.953256   -0.386478
H        -1.465574   -0.209425    1.271091
