10
0 2
C         0.689940   -0.744145    0.000020
C        -0.610850   -0.017881    0.000008
O        -1.730498   -0.588148   -0.000010
O        -0.747655    1.217395   -0.000005
C         1.894754    0.182377   -0.000011
H         0.685070   -1.401579   -0.872403
H         0.685080   -1.401529    0.872482
H         1.899062    0.824086   -0.879673
H         2.813871   -0.401198    0.000001
H         1.899070    0.824135    0.879614
