8
0 2
O        -1.856044   -0.154013   -0.000007
O        -0.676420   -0.717315   -0.000007
C         0.405298    0.224974    0.000000
C         1.681201   -0.542391    0.000007
H         1.724536   -1.185173    0.878941
H         2.515668    0.151263    0.000008
H         1.724543   -1.185179   -0.878923
O         0.221996    1.386778    0.000006
