8
0 1
P        -0.113868   -0.580473   -0.113702
C         1.410813    0.419812    0.002092
H         1.367689    1.121971    0.833700
H         1.561654    0.971112   -0.925180
H         2.260797   -0.250565    0.143388
O        -1.240333    0.612071    0.116363
H        -0.059871   -1.070288    1.217166
H        -1.964469    0.519420   -0.507001
