22
0 1
C         2.992392    0.344485   -0.604257
N         1.912849    0.306193    0.361704
H         2.653407    0.634775   -1.607774
H         3.463171   -0.634591   -0.674063
H         3.747850    1.066482   -0.284592
C         1.283270    1.590315    0.570030
H         2.037024    2.333255    0.842298
H         0.561662    1.527124    1.382986
H         0.761073    1.956312   -0.325164
P         1.020770   -1.138145    0.449960
P        -0.737786   -0.879239   -0.891469
N        -1.953684    0.062023   -0.173352
C        -2.203197    1.384172   -0.701721
H        -1.676922    2.169769   -0.143316
H        -3.272668    1.608577   -0.660763
H        -1.884292    1.435519   -1.741278
C        -2.394797   -0.123410    1.188235
H        -2.327479   -1.173440    1.468365
H        -3.438476    0.187152    1.284238
H        -1.807322    0.459217    1.910005
H         0.380363   -0.894983    1.687503
H        -1.222317   -2.165280   -0.547993
