8
0 2
P         0.691808   -0.852551   -0.000005
N        -0.865015    0.126867   -0.000002
C         1.854129    0.536542    0.000013
H         1.716552    1.164025    0.881274
H         1.716558    1.164043   -0.881236
H         2.865579    0.128304    0.000013
O        -0.849718    1.338993    0.000015
O        -1.868466   -0.560922   -0.000019
