9
0 1
P        -1.393109    0.329304   -0.097173
P         0.550366   -0.726076    0.128308
C         1.677451    0.730257   -0.038438
H         1.412382    1.390359   -0.862095
H         2.696348    0.370532   -0.180696
H         1.657120    1.300131    0.890387
H         0.575711   -1.126410   -1.229877
H        -1.610091    0.497638    1.291642
H        -2.155020   -0.862217   -0.145752
