14
0 1
P         0.573926    0.660127   -0.866079
N         1.674350   -0.560858   -0.018071
C         0.867327    2.104169    0.202340
P        -1.306552   -0.080755    0.005366
H         1.835732    2.536558   -0.037535
H         0.824762    1.861050    1.260950
H         0.090505    2.831665   -0.039573
O         1.356710   -1.740390   -0.097785
O         2.686856   -0.163298    0.497640
O        -2.415321    0.793987   -0.355846
O        -1.398428   -1.563959   -0.499901
O        -1.037126   -0.188424    1.574760
H        -1.676819    0.316759    2.091948
H        -0.550735   -2.038943   -0.403592
