20
0 1
P         0.173716    0.159661   -0.876816
N         0.074086    1.779351    0.015527
P        -1.569173   -0.689347    0.187099
C         1.508297   -0.643265    0.081552
C         2.908931   -0.323805   -0.431559
H         1.308834   -1.715816   -0.019553
H         1.395111   -0.405585    1.139070
O         1.083692    2.248149    0.474287
O        -1.010926    2.345523    0.020429
O        -1.358805   -0.896194    1.617555
O        -2.767371    0.213956   -0.285379
C         3.975563   -1.072160    0.352175
H         3.082210    0.749817   -0.357576
H         2.976648   -0.581953   -1.491148
H         3.944052   -0.804111    1.409182
H         4.972002   -0.837848   -0.021739
H         3.836013   -2.152257    0.278373
H        -2.561273    1.159668   -0.164995
O        -1.826194   -2.022927   -0.637962
H        -1.860254   -2.794773   -0.059002
