18
0 1
P        -0.924429   -0.000003   -0.606849
P         0.924429   -0.000004    0.606849
C        -1.787360    1.405609    0.218098
C        -1.787368   -1.405604    0.218110
C         1.787360    1.405609   -0.218098
C         1.787368   -1.405604   -0.218110
H         1.320131   -2.347300    0.068007
H         2.821189   -1.434796    0.127389
H         1.780232   -1.321702   -1.305466
H        -1.320115    2.347300   -0.068025
H        -1.780228    1.321714    1.305455
H        -2.821180    1.434806   -0.127405
H        -1.320131   -2.347300   -0.068008
H        -2.821189   -1.434796   -0.127390
H        -1.780232   -1.321702    1.305466
H         1.320115    2.347300    0.068025
H         1.780228    1.321714   -1.305454
H         2.821180    1.434806    0.127405
