18
0 2
C         3.083925   -0.477364   -0.000016
P         2.012579    1.047065   -0.000014
C         0.316920    0.481599   -0.000007
O         2.697496   -1.621847   -0.000043
C        -0.634302    1.514885   -0.000006
C        -1.986598    1.251269    0.000003
C        -2.413518   -0.066257    0.000012
C        -1.502455   -1.110037    0.000011
C        -0.149828   -0.841071    0.000002
H         0.558910   -1.653052    0.000000
H        -1.857639   -2.130692    0.000018
H        -0.299372    2.544975   -0.000013
H        -2.709320    2.054315    0.000003
C         4.556783   -0.148303    0.000014
H         4.809093    0.449821    0.877467
H         4.809121    0.449862   -0.877403
H         5.134221   -1.069659    0.000002
Cl        -4.108190   -0.412064    0.000023
