14
0 2
S         1.515699    0.000000   -0.076597
C        -0.301818    0.000000   -0.006158
C        -0.853728    1.254240   -0.676563
H        -0.576469    1.291117   -1.730139
H        -0.473634    2.153612   -0.194571
C        -0.655239    0.000008    1.483553
H        -1.742536    0.000008    1.588074
H        -0.266014    0.885318    1.985710
H        -0.266013   -0.885295    1.985719
C        -0.853725   -1.254249   -0.676549
H        -0.576467   -1.291137   -1.730125
H        -1.944681   -1.260005   -0.615127
H        -0.473631   -2.153615   -0.194546
H        -1.944683    1.259996   -0.615142
