16
0 1
S        -0.148336    1.298749   -0.564817
P        -1.326622   -0.248012    0.246814
O        -0.973459   -0.540598    1.628350
O        -1.307638   -1.459820   -0.769227
O         1.264633    0.979683    0.241318
C         2.059066   -0.078694   -0.136502
C         1.903350   -0.798084   -1.239348
C         3.107846   -0.279951    0.899159
H         3.772927   -1.093553    0.621636
H         2.638434   -0.503178    1.857624
H         3.691045    0.633423    1.021528
H         1.147193   -0.571088   -1.975665
H         2.597654   -1.597326   -1.446125
H        -0.447564   -1.902541   -0.784588
O        -2.783529    0.283964   -0.069475
H        -3.148593    0.808992    0.652863
