12
0 1
S        -0.584122    1.327415   -0.313040
P        -1.873050   -0.332058   -0.089505
O        -1.564459   -1.402746   -1.022203
O        -3.263327    0.413693   -0.197041
O         0.821331    0.531868   -0.783674
C         1.663232    0.139607    0.203638
Cl         3.032450   -0.662319   -0.534465
F         1.054108   -0.713518    1.058769
F         2.081671    1.168273    0.945761
H        -3.589195    0.468966   -1.103704
O        -1.937196   -0.692642    1.444414
H        -1.172947   -1.199117    1.746251
