13
0 1
P         1.479931   -0.117586    0.044911
S        -0.000003    1.380016    0.000000
P        -1.479933   -0.117588   -0.044911
O         1.238426   -1.000480    1.196834
O         2.850571    0.652850    0.058841
O        -1.238426   -1.000476   -1.196838
O        -1.484293   -0.764256    1.374219
H        -0.570070   -1.048781    1.613676
H         3.258117    0.667533    0.933570
O        -2.850575    0.652845   -0.058834
H        -3.258125    0.667530   -0.933561
O         1.484305   -0.764251   -1.374221
H         0.570086   -1.048783   -1.613687
