13
0 1
C        -3.135813   -0.325609    0.172683
C        -1.745774    0.192828   -0.030066
H        -3.849333    0.416710   -0.176405
H        -3.286444   -0.486308    1.241793
H        -3.287671   -1.276544   -0.334189
S        -0.523725   -1.093057   -0.154639
O        -1.502080    1.375295   -0.097884
P         1.304302   -0.006988   -0.055455
O         2.380021   -0.853578   -0.539479
O         1.010146    1.330194   -0.790556
H         0.095791    1.656063   -0.584946
O         1.424093    0.432524    1.466873
H         1.934818   -0.194984    1.992453
