14
0 2
S        -1.975764   -0.006774   -0.087898
C        -0.364714   -0.667230    0.326073
C         0.834619    0.008443   -0.330684
C         0.978857    1.450604    0.131398
H         0.076414    2.024077   -0.081337
H         1.814968    1.939900   -0.368907
H         1.162937    1.493727    1.208098
C         2.100192   -0.791039   -0.044742
H         0.658953    0.008287   -1.410168
H         2.300559   -0.831259    1.028668
H         2.966294   -0.334656   -0.525010
H         2.017226   -1.816638   -0.407952
H        -0.409837   -1.727255    0.054053
H        -0.269016   -0.652472    1.416656
