8
0 1
P         1.610399    0.221174    0.484256
S         0.139036   -0.952444   -0.621852
F         2.028759    1.229989   -0.643174
F         2.758096   -0.837842    0.247310
S        -1.482800    0.156175   -0.038939
O        -2.541378   -0.076236   -0.942379
O        -1.062955    1.454446    0.348322
F        -1.878088   -0.570256    1.291561
