17
0 1
C        -1.742351    0.079890    0.319862
S        -0.437781   -0.888469   -0.547603
P         1.253678    0.064825    0.180577
O         1.135929    0.534434    1.553535
O         2.395095   -1.001739   -0.132357
C        -1.886732    1.479732   -0.245923
H        -2.151937    1.446413   -1.303540
H        -0.969226    2.055016   -0.136408
C        -3.029301   -0.720937    0.218473
H        -1.415774    0.132204    1.356668
H        -3.823927   -0.198438    0.752452
H        -2.919849   -1.713116    0.654078
H        -3.343005   -0.833918   -0.820637
H        -2.678453    2.008754    0.288155
H         2.432974   -1.716550    0.513747
O         1.642846    1.224651   -0.827282
H         1.627874    0.971873   -1.757149
