14
0 1
S         0.134984    1.331700   -0.479598
P         1.492583   -0.186978    0.063528
O         2.815624    0.343922   -0.224299
O         1.062550   -1.493434   -0.665961
O        -1.322802    0.910152    0.272578
C        -2.011041   -0.181155   -0.105048
C        -3.381431   -0.178173    0.487210
H        -3.882662   -1.109333    0.244519
H        -3.944196    0.666468    0.090529
H        -3.315215   -0.051208    1.566627
O        -1.565096   -1.045892   -0.812570
O         1.168254   -0.520428    1.581842
H         1.577789    0.103859    2.193510
H         0.102377   -1.510916   -0.880226
