20
0 1
S        -0.263693   -1.281263   -0.485986
P        -1.498628    0.282860    0.035632
O        -1.312918    1.512901   -0.732871
C         1.216419   -0.328296   -0.967497
C         2.025308    0.262156    0.180899
C         2.571534   -0.807556    1.114067
H         1.771548   -1.405555    1.548465
H         3.135031   -0.355165    1.930479
H         3.245595   -1.480295    0.577470
C         3.146617    1.117573   -0.397532
H         1.363237    0.916846    0.753302
H         3.829507    0.510979   -0.997347
H         3.729202    1.581147    0.399081
H         2.753045    1.911508   -1.033134
H         0.886791    0.450181   -1.651602
H         1.819391   -1.043803   -1.529670
O        -1.318496    0.444327    1.605651
H        -1.610076    1.311359    1.915298
O        -2.952007   -0.363704   -0.037788
H        -3.316671   -0.351337   -0.930587
