12
0 1
S         0.239358   -1.318651   -0.017872
P         1.774932    0.112314   -0.046733
O         2.966077   -0.624812   -0.428135
O         1.388040    1.296969   -0.998240
O        -1.004209   -0.492768    0.774776
C        -1.958296    0.097897    0.023385
F        -1.472151    1.151238   -0.668688
F        -2.891225    0.548616    0.840769
F        -2.511486   -0.723015   -0.859933
H         0.568716    1.765075   -0.793106
O         1.723944    0.821508    1.367824
H         2.010281    0.262537    2.100602
