18
0 2
C        -1.962240   -0.318407    0.000004
C        -1.050512   -1.373824    0.000004
C         0.297584   -1.113444    0.000002
C        -1.504953    0.996239    0.000003
C        -0.145958    1.242044    0.000002
C         0.766860    0.197643    0.000001
H        -1.431305   -2.385234    0.000005
H         0.998009   -1.939547    0.000002
H        -2.195609    1.825042    0.000004
H         0.226966    2.257092    0.000001
C         2.202006    0.514723    0.000000
S         3.410122   -0.767175   -0.000012
O         2.661400    1.632431   -0.000004
O        -3.262302   -0.666635    0.000006
C        -4.241016    0.353011    0.000007
H        -4.160870    0.978247    0.891898
H        -5.201683   -0.153322    0.000009
H        -4.160873    0.978246   -0.891885
