7
0 2
C        -1.396128   -0.898241    0.000000
C        -0.396928    0.216459   -0.000002
H        -2.399518   -0.477841   -0.000009
H        -1.255281   -1.524049    0.881710
H        -1.255270   -1.524064   -0.881697
S         1.314024   -0.216859    0.000002
O        -0.669497    1.385799   -0.000002
