12
0 1
Si         0.586810   -0.687943   -0.092121
P        -1.456127    0.209542    0.167960
N         1.763724    0.734309    0.083956
O        -1.631863    0.559759    1.573137
O        -1.532427    1.335113   -0.931802
O         2.903053    0.571841    0.438907
O         1.273383    1.815863   -0.232643
F         0.964538   -1.737176    1.004838
F         0.920575   -1.266802   -1.512278
H        -0.815886    1.984144   -0.837584
O        -2.487692   -0.831622   -0.430003
H        -3.065275   -1.208076    0.246373
