13
0 2
Si        -1.840910   -0.001549    0.000001
C         2.405215    0.032535   -0.000001
C        -0.067899    0.617245   -0.000006
C         0.979602   -0.500898    0.000004
H         0.076294    1.259169    0.873441
H         0.076294    1.259152   -0.873466
H         0.830751   -1.141139   -0.873140
H         0.830752   -1.141122    0.873160
H         2.591226    0.649543    0.880906
H         2.591225    0.649526   -0.880921
H         3.133767   -0.779257    0.000006
H        -2.129539   -0.813757   -1.209511
H        -2.129540   -0.813724    1.209534
