8
0 2
Si        -0.879611    0.000000   -0.128047
C         0.786410    0.777592    0.036193
C         0.786410   -0.777592    0.036192
H         1.261368   -1.237096   -0.821828
H         1.056301   -1.266230    0.965084
H         1.056306    1.266230    0.965083
H         1.261365    1.237095   -0.821829
H        -1.757706   -0.000002    1.071833
