16
0 1
Si        -0.879611    0.415744   -0.005061
P         1.307345   -0.138490    0.128731
O         1.766199   -0.714524    1.397371
C        -1.225529    1.277323   -1.606612
H        -0.931905    0.655687   -2.451762
H        -0.664674    2.211619   -1.657281
C        -1.324770    1.388291    1.504023
Cl        -1.863112   -1.400111    0.022182
H        -0.786227    2.337389    1.511645
H        -1.058895    0.836840    2.405163
H        -2.394655    1.598323    1.526500
H        -2.288461    1.503988   -1.698484
O         1.633595   -1.074207   -1.136121
H         1.732703   -1.997987   -0.875858
O         1.992417    1.242291   -0.298321
H         2.933505    1.290802   -0.085028
