9
0 1
P         0.119113   -1.016595   -0.372355
Si         1.846900    0.332453    0.204755
N        -1.207807    0.200389   -0.010039
O        -1.022919    1.328388   -0.425614
O        -2.206414   -0.183836    0.549047
H        -0.011026   -1.679704    0.864724
H         2.161683    1.201076   -0.940080
H         2.966340   -0.598839    0.463653
H         1.529034    1.112907    1.413265
