16
0 1
P        -1.894001   -0.128366    0.000000
Si         0.366170    0.005387    0.000000
C         0.972674    1.775044    0.000000
H         0.620713    2.312799    0.881178
H         0.620713    2.312799   -0.881178
C         0.972674   -0.876135   -1.534634
H         2.064484    1.809141    0.000000
H         2.063932   -0.876731   -1.571342
H         0.636325   -1.913464   -1.554369
H         0.610879   -0.390183   -2.442000
C         0.972674   -0.876135    1.534634
H         0.610879   -0.390183    2.442000
H         2.063932   -0.876731    1.571342
H         0.636325   -1.913464    1.554369
H        -2.076335    0.819720   -1.035099
H        -2.076335    0.819720    1.035099
