13
0 1
Si         0.849135    0.612536   -0.031901
P        -0.931137   -0.757735   -0.142185
C        -2.294274    0.480272    0.088683
H        -3.232002   -0.047841    0.255166
H        -2.399623    1.056106   -0.830394
H        -2.125655    1.168880    0.914419
C         2.427953   -0.381424    0.064673
H         2.449152   -0.993451    0.966962
H         3.298473    0.275037    0.083383
H         2.521753   -1.044787   -0.795327
H        -0.816775   -1.194924    1.199894
H         0.747656    1.535971    1.126177
H         0.834111    1.442436   -1.261030
