10
0 1
Si         1.804627   -0.026840    0.021356
P        -0.447778   -0.007317    0.109695
O        -1.069382   -0.241610    1.418015
O        -0.916008   -1.078848   -0.990401
H        -1.460234   -1.770198   -0.593324
O        -0.790410    1.399012   -0.563497
H        -1.654272    1.745948   -0.305055
H         2.231268   -1.365293    0.469812
H         2.297698    1.019646    0.934511
H         2.243826    0.226981   -1.363294
