9
0 1
Si        -1.647283   -0.793476    0.066675
P        -0.560830    1.159526   -0.234541
C         1.103784    0.720704    0.285099
S         1.869486   -0.650774   -0.076164
H         1.635425    1.513613    0.811938
H        -0.976235    1.847751    0.926967
H        -1.488670   -1.626742   -1.136954
H        -3.071886   -0.427445    0.226587
H        -1.158705   -1.503241    1.264140
