19
0 1
Si         0.839560    0.718755   -0.450073
P        -1.093207   -0.370522   -0.012183
O        -1.166770   -1.805376   -0.326533
O        -2.260739    0.461259   -0.747694
C         2.214040   -0.217639    0.398885
C         2.419496   -1.642549   -0.118196
H         1.998004   -0.228456    1.470761
H         3.132665    0.365800    0.284786
H         2.686649   -1.643028   -1.175882
H         1.513331   -2.239053   -0.013022
C         0.671291    2.482624    0.123835
H         1.574153    3.050409   -0.105773
H         0.507207    2.521434    1.200857
H        -0.171446    2.972166   -0.363975
H         3.220794   -2.145628    0.423925
H        -2.719060   -0.090581   -1.393149
O        -1.316282   -0.012012    1.534068
H        -1.949699   -0.594584    1.972916
H         0.973039    0.641207   -1.923546
