16
0 1
N         1.777361   -0.863193    0.680323
P         1.939638   -0.303774   -1.061182
Si         0.853106    1.672646   -0.801385
P        -1.939639   -0.303780    1.061182
N        -1.777357   -0.863201   -0.680322
O        -1.885421   -0.006188   -1.541800
O        -1.619024   -2.040227   -0.895004
O         1.885415   -0.006177    1.541798
O         1.619044   -2.040221    0.895007
Si        -0.853114    1.672643    0.801385
H         0.867744   -1.095606   -1.515427
H        -0.867743   -1.095609    1.515429
H         0.346403    1.988242   -2.152798
H         1.885377    2.660638   -0.427128
H        -1.885389    2.660631    0.427127
H        -0.346412    1.988241    2.152798
