14
0 2
C         0.516597    0.000002   -0.008942
C        -0.202573    1.197907   -0.007838
C        -1.585192    1.198903    0.006777
C        -2.279938   -0.000002    0.013982
C        -1.585189   -1.198904    0.006777
C        -0.202570   -1.197905   -0.007838
H         0.326333   -2.143473   -0.010891
H         0.326328    2.143477   -0.010892
H        -2.123909    2.137358    0.014284
H        -3.361840   -0.000003    0.025893
H        -2.123904   -2.137361    0.014284
Si         2.366053    0.000000   -0.079516
H         2.932718   -1.225026    0.531522
H         2.932723    1.225021    0.531527
