19
0 1
Si        -0.103515    1.400501   -0.160470
P         1.372587   -0.303396   -0.036820
O         1.021668   -1.537202   -0.755235
O         1.543467   -0.468848    1.544683
C        -1.764967    0.782745    0.421678
C        -2.366121   -0.321601   -0.450756
H        -2.447003    1.637247    0.472031
H        -1.649738    0.429332    1.450668
C        -3.700407   -0.821122    0.081068
H        -1.663944   -1.154218   -0.526812
H        -2.497568    0.052992   -1.469343
H        -3.589441   -1.235311    1.084891
H        -4.113663   -1.602477   -0.557516
H        -4.431215   -0.011798    0.136155
H         1.924909   -1.318198    1.802510
O         2.797251    0.278409   -0.501310
H         3.117061   -0.180197   -1.287901
H        -0.116047    1.795727   -1.585359
H         0.416935    2.511818    0.662522
