7
0 1
Si         0.892583    0.000000   -0.001235
P        -1.322872    0.000000   -0.613311
F         1.600134    1.275101   -0.597603
F         1.102557    0.000003    1.556953
F         1.600132   -1.275103   -0.597599
F        -1.743249   -1.211319    0.331178
F        -1.743249    1.211319    0.331178
