16
0 1
P        -1.902818    0.345491    0.568661
Si        -0.388902   -0.666038   -0.769744
C         1.353173   -0.172984   -0.256935
C         1.577995    1.332643   -0.394927
H         0.948831    1.891494    0.301660
H         1.356681    1.690726   -1.401572
C         1.695931   -0.658180    1.150883
H         2.614901    1.592521   -0.170921
H         2.016073   -0.682050   -0.965568
H         2.725635   -0.400569    1.408921
H         1.047518   -0.195919    1.897911
H         1.590135   -1.739503    1.246789
H        -3.018114   -0.144135   -0.149868
H        -1.874563    1.580051   -0.121119
H        -0.604231   -0.333326   -2.198249
H        -0.578560   -2.125992   -0.595622
