20
0 1
C         2.108101   -1.155519    0.037270
Si         2.044575    0.724715    0.450654
O         3.163452   -1.715890    0.114205
O         1.002746   -1.844810   -0.300569
P         0.396137    1.908526   -0.531223
C        -0.989360    0.750633   -0.215175
H         0.219668   -1.274718   -0.328703
C        -1.524107    0.674671    1.070357
C        -1.555517   -0.033150   -1.218984
C        -2.619807   -0.876263   -0.940507
C        -3.132149   -0.952286    0.342418
C        -2.580525   -0.173392    1.346841
H        -2.976503   -0.224677    2.352201
H        -1.110398    1.286165    1.862850
H        -1.160931    0.011711   -2.225853
H        -3.044259   -1.479073   -1.732098
H        -3.957984   -1.615606    0.559865
H         0.699632    1.487878   -1.845481
H         3.350208    1.285372    0.063083
H         1.845072    0.826476    1.910909
