9
0 1
Si         1.425743    0.188860   -0.009547
P        -0.657527   -0.669442   -0.093811
N        -1.649025    0.706245    0.063432
H        -2.245204    0.916317   -0.717451
H        -1.357419    1.525138    0.570652
H        -0.640338   -1.136210    1.244172
H         1.765077    0.777403   -1.324123
H         2.390651   -0.887551    0.310443
H         1.532915    1.258777    1.013109
