13
0 1
C        -1.509781    0.315234    0.042233
Si        -0.172481   -0.969010    0.550364
O        -1.384843    1.470399    0.332391
O        -2.582373   -0.076844   -0.686004
P         1.813823   -0.501840   -0.373364
C         1.978406    1.291062    0.060821
H         2.795968    1.707884   -0.525671
H         2.252921    1.366947    1.112410
H         1.074784    1.870933   -0.107332
H        -2.562960   -1.030533   -0.829079
H         1.278533   -0.370249   -1.677341
H        -0.619518   -2.313684    0.110804
H        -0.086358   -0.923770    2.022160
