17
0 2
C        -0.070830   -0.227188   -0.094477
C         0.867555   -1.251593    0.055278
C         2.219404   -0.976213    0.147010
C         2.666450    0.334134    0.086179
C         1.753720    1.364823   -0.066703
C         0.401919    1.085581   -0.159067
H         2.927881   -1.785201    0.268667
H         3.723970    0.551276    0.158470
H         2.097183    2.390064   -0.113342
H        -0.295352    1.906028   -0.278001
H         0.533590   -2.281106    0.108223
Si        -1.877929   -0.620358   -0.262859
C        -2.983819    0.773042    0.323444
H        -2.837057    1.676775   -0.267846
H        -2.778912    1.015000    1.368809
H        -4.032571    0.488835    0.239279
H        -2.174126   -1.892177    0.445779
