16
0 1
P        -2.038922   -0.887538   -0.193580
Si        -0.848606    1.001090    0.144056
C         3.100992   -0.542480   -0.077955
C         0.923799    0.729636   -0.396316
C         1.651420   -0.384517    0.355499
H         1.462899    1.673951   -0.271276
H         0.929145    0.518702   -1.469858
H         1.126983   -1.332080    0.204920
H         1.613745   -0.187179    1.430547
H         3.662310    0.377479    0.095128
H         3.166153   -0.773544   -1.142694
H         3.596781   -1.344979    0.469541
H        -3.210052   -0.397980    0.430021
H        -1.573063   -1.542762    0.970220
H        -0.884203    1.433292    1.561709
H        -1.483651    2.057083   -0.678708
