18
0 1
C         1.052738    1.322078    1.760499
Si         0.621733    0.691273    0.080867
H         0.829940    0.581549    2.528331
H         0.460268    2.212767    1.974402
H         2.109547    1.582832    1.818178
C         1.071143    1.755524   -1.353667
H         0.844306    1.255006   -2.294267
H         2.132607    2.000045   -1.332214
H         0.496739    2.682534   -1.314927
P        -1.508191   -0.045921    0.021328
N         1.646527   -0.888114   -0.091880
O         1.134928   -1.979669    0.137369
O         2.812496   -0.750724   -0.392525
O        -2.490093    0.943629    0.465543
O        -1.524381   -1.383710    0.867519
O        -1.673026   -0.491048   -1.509299
H        -2.559252   -0.321917   -1.854583
H        -0.743925   -1.938459    0.676337
