14
0 2
Si        -0.011782    0.066322   -0.872186
N         1.656079   -0.164096   -0.056154
N        -1.095129   -1.092131    0.095426
C        -0.661997    1.779655   -0.571717
O        -0.750675   -1.664658    1.099827
O         2.152727    0.819730    0.462710
O        -2.213814   -1.139451   -0.400916
O         2.169676   -1.259037   -0.122058
C        -0.993683    2.057085    0.898771
H        -1.542577    1.903838   -1.204831
H         0.097962    2.471704   -0.940189
H        -1.771503    1.389454    1.267994
H        -1.360328    3.078097    1.002826
H        -0.114490    1.948887    1.531076
