8
0 2
Si        -0.034039   -0.056810   -0.386208
N         0.664323    1.398180    0.178726
O        -1.597804   -0.131038    0.113735
H         0.223476    2.283155   -0.012129
H         1.667349    1.481339    0.230507
H        -1.772676    0.072000    1.038842
O         0.951379   -1.210025    0.259923
H         0.879530   -2.099908   -0.090651
