14
0 1
P         0.978784    0.076209   -0.122757
O         0.982075    1.002583   -1.259598
O         1.681781   -1.337812   -0.332079
Si        -1.070648   -0.488332    0.566342
C        -2.367125   -0.368709   -0.731248
C        -2.325702    0.820862    0.249385
H        -3.234977   -1.013193   -0.669642
H        -2.062638   -0.157959   -1.748220
H        -2.001626    1.766277   -0.166335
H        -3.168068    0.917951    0.922710
H         2.574054   -1.289781   -0.699421
O         1.791590    0.654523    1.138588
H         1.880581    1.613729    1.083937
H        -1.166625   -1.410787    1.705428
