17
0 1
Si         2.508621   -0.021872   -0.912233
P         1.466868   -0.064206    1.084318
C        -0.255431    0.008934    0.462631
C        -0.931067   -1.190844    0.258870
C        -0.922346    1.202218    0.201590
C        -2.230137    1.194644   -0.250114
C        -2.888646   -0.005502   -0.460544
C        -2.234090   -1.198711   -0.207573
H        -3.909765   -0.010094   -0.817589
H        -2.742189   -2.141004   -0.364549
H        -0.434022   -2.129218    0.472527
H        -0.414559    2.146318    0.350098
H        -2.735436    2.131762   -0.443567
H         1.644852    1.315331    1.336327
H         2.254806   -1.317751   -1.576951
H         3.964404    0.138648   -0.698091
H         2.018496    1.070875   -1.780875
