13
0 2
Si         1.840910   -0.001549    0.000000
C         0.067899    0.617245   -0.000007
C        -0.979602   -0.500898    0.000005
H        -0.076294    1.259152   -0.873466
H        -0.076294    1.259170    0.873440
C        -2.405215    0.032535   -0.000001
H        -0.830752   -1.141122    0.873161
H        -0.830752   -1.141139   -0.873139
H        -2.591226    0.649543    0.880907
H        -3.133767   -0.779257    0.000008
H        -2.591226    0.649525   -0.880920
H         2.129541   -0.813722    1.209535
H         2.129538   -0.813759   -1.209510
