10
0 1
P        -1.578583   -0.154038    0.000001
Si         0.538441    0.621866   -0.000001
C         1.852934   -0.704796    0.000000
H         1.763620   -1.339293    0.882120
H         2.850099   -0.261950   -0.000002
H         1.763618   -1.339295   -0.882119
H        -1.355042   -1.093650    1.034857
H        -1.355043   -1.093651   -1.034855
H         0.677857    1.480538    1.199055
H         0.677856    1.480537   -1.199057
