17
0 1
C         0.347658    0.278927    0.271482
C         0.822393   -1.010141    0.513592
C         2.137207   -1.346983    0.248225
C         3.004374   -0.397868   -0.269249
C         2.551191    0.885431   -0.518993
C         1.233556    1.218574   -0.250310
P        -2.767469   -0.651852   -0.557901
H         2.487384   -2.351979    0.443745
H         4.033095   -0.660407   -0.478288
H         3.224361    1.629573   -0.924018
H         0.892282    2.226987   -0.450264
H         0.156249   -1.765946    0.913092
Si        -1.428288    0.728543    0.618216
H        -2.524065   -0.019398   -1.799105
H        -3.952385    0.075568   -0.295548
H        -1.624511    2.158244    0.289737
H        -1.762601    0.517903    2.045662
