18
0 1
Si        -0.918381    0.000000   -0.044400
P         1.237710    0.000000   -0.662722
C         1.870393   -1.427907    0.326156
H         1.678684   -1.323529    1.394503
H         2.945318   -1.525081    0.175252
H         1.401028   -2.346912   -0.023249
O        -1.595874    1.374823   -0.647227
C        -1.287672   -0.000002    1.765891
H        -0.878138   -0.885320    2.251998
H        -2.367813   -0.000004    1.919099
H        -0.878141    0.885318    2.251999
C         1.870393    1.427907    0.326156
H         1.401027    2.346912   -0.023250
H         2.945318    1.525081    0.175252
H         1.678684    1.323529    1.394503
H        -1.409497    1.625850   -1.553626
O        -1.595875   -1.374821   -0.647230
H        -1.409492   -1.625850   -1.553628
