16
0 1
P         1.132660   -1.476552   -0.235307
Si         0.210440    0.489166    0.396591
C        -1.496489    0.619546   -0.366481
C        -2.465608   -0.487589    0.045799
H        -1.384757    0.635820   -1.454308
H        -1.905852    1.596337   -0.091635
H        -2.114351   -1.467747   -0.280253
H        -3.454691   -0.336969   -0.388336
C         1.320722    1.868881   -0.200962
H         2.309747    1.807768    0.254185
H         0.896584    2.841778    0.052665
H         1.446298    1.828042   -1.283831
H        -2.585775   -0.528772    1.129705
H         0.381116   -2.273803    0.658791
H         2.242235   -1.370613    0.635868
H         0.081632    0.563094    1.874339
