16
0 1
P         0.822928    0.130943   -0.638737
C         1.035519    1.632503    0.421899
H         0.965583    1.416763    1.488969
H         0.281210    2.375057    0.162543
H         2.011392    2.074736    0.220261
Si        -1.072266   -0.671373    0.261525
C         2.031796   -1.013488    0.166951
H         3.044274   -0.674414   -0.053078
H         1.921030   -2.013587   -0.251327
H         1.911531   -1.070131    1.249569
C        -2.527251    0.415641   -0.181820
H        -2.396842    1.424103    0.212337
H        -3.453321    0.013698    0.230252
H        -2.640457    0.488138   -1.263723
H        -0.940452   -0.761962    1.740404
H        -1.276535   -2.045265   -0.258683
