14
0 1
P        -1.944410    0.000001   -0.454375
Si        -0.038602   -0.000001    0.750888
C         1.225836   -1.198871    0.040456
C         1.225836    1.198870    0.040461
C         1.755614    0.000001   -0.798398
H         1.952399    1.502378    0.795485
H         0.926706    2.079151   -0.522992
H         1.284630    0.000003   -1.781509
H         2.834745    0.000002   -0.953510
H         0.926706   -2.079149   -0.523000
H         1.952399   -1.502381    0.795480
H        -2.555708    1.034357    0.293527
H        -2.555708   -1.034358    0.293523
H        -0.303311   -0.000004    2.211074
