10
0 2
Si         0.381165    0.000000   -0.464467
C         1.175270    1.548099    0.213833
H         0.682447    2.442734   -0.163811
H         2.228254    1.589016   -0.068380
C         1.175270   -1.548099    0.213832
Cl        -1.616410    0.000000    0.105411
H         2.228254   -1.589016   -0.068381
H         0.682447   -2.442734   -0.163812
H         1.109007   -1.554447    1.304466
H         1.109007    1.554446    1.304467
