11
0 2
S         2.288067    0.000000    0.000000
C         0.548126    0.000000    0.000000
C        -0.168436   -1.191961   -0.000001
C        -0.168436    1.191961    0.000001
C        -1.549058    1.130548    0.000000
C        -1.549058   -1.130548    0.000001
N        -2.243497    0.000000    0.000000
H         0.333333   -2.149404   -0.000002
H        -2.125042   -2.049392    0.000002
H         0.333333    2.149404    0.000002
H        -2.125042    2.049392   -0.000002
