9
0 2
S        -1.714612   -0.324601   -0.000001
C        -0.092887    0.126166    0.000001
N         0.766725   -0.870625   -0.000002
O         2.049944   -0.410918    0.000000
H         2.581268   -1.216193    0.000001
C         0.362280    1.552534    0.000003
H        -0.494092    2.218187    0.000001
H         0.981816    1.750566   -0.875649
H         0.981812    1.750565    0.875658
