9
0 1
F         3.168469   -0.715500   -0.413540
C         1.011260   -0.033602    0.204353
C         2.474767    0.211306    0.348460
H         2.787037    0.077793    1.387561
H         2.732911    1.214204    0.011391
N         0.220613    0.928452    0.008294
S        -1.381967    0.957442   -0.136956
Cl        -2.061557   -0.980817    0.049997
H         0.661310   -1.063059    0.289330
