15
0 1
Cl        -3.178824   -0.584103    0.927461
S        -2.293842   -0.350921   -0.901621
C        -0.740349    0.344296   -0.434577
C         0.373015   -0.475672   -0.334606
C         1.584993    0.099893   -0.013731
C         1.723124    1.453685    0.217850
C        -0.621387    1.712244   -0.211767
H        -1.498585    2.338404   -0.297451
C         0.604206    2.261439    0.117852
H         0.691686    3.324531    0.292380
H         2.693808    1.853292    0.468256
N         2.773276   -0.763885    0.088329
O         2.626862   -1.945321   -0.132778
O         3.822708   -0.237217    0.386739
H         0.303460   -1.539551   -0.500189
