22
0 1
C        -0.972652   -1.112160   -0.413202
C        -2.198223   -1.403522    0.443783
C        -3.282818   -0.352442    0.242562
C        -2.743393    1.050197    0.494057
C        -1.514363    1.336899   -0.360286
C         0.780874    0.615294   -1.022246
C        -0.423472    0.286678   -0.153429
S         2.245485   -0.402773   -0.780232
Cl         2.783277    0.157681    1.104729
H        -1.245084   -1.192205   -1.472479
H        -0.196483   -1.856352   -0.232222
H        -1.902441   -1.419920    1.497615
H        -2.585843   -2.397879    0.214889
H        -4.132836   -0.553327    0.897370
H        -3.657730   -0.414791   -0.784426
H        -2.474571    1.148495    1.550610
H        -3.516239    1.796023    0.298847
H        -1.121087    2.330816   -0.133969
H        -1.802855    1.347395   -1.417719
H         1.071163    1.660590   -0.915274
H         0.548617    0.449218   -2.079942
H        -0.103790    0.340055    0.892578
