7
0 1
Cl         2.142041   -0.397362   -0.020191
S         0.744319    1.056503    0.077759
S        -0.995573   -0.057286   -0.117149
O        -1.989100    0.949898   -0.030545
O        -0.900882   -0.976484   -1.196655
O        -1.063945   -0.901683    1.218416
H        -0.763235   -1.806161    1.043764
