7
0 2
S        -1.314023   -0.216862    0.000004
C         0.396928    0.216460   -0.000004
O         0.669491    1.385800   -0.000006
C         1.396131   -0.898237   -0.000001
H         1.255255   -1.524083   -0.881679
H         1.255307   -1.524026    0.881727
H         2.399520   -0.477836   -0.000042
