7
0 2
S        -1.615041   -0.067527    0.000000
O        -0.142313    0.511957    0.000000
O         0.875188   -0.560190    0.000000
C         2.111240    0.115632    0.000000
H         2.853240   -0.682155    0.000000
H         2.228489    0.727330    0.896272
H         2.228489    0.727331   -0.896271
