13
0 2
S        -1.680579   -0.796726   -0.107912
C        -0.047819   -0.244116    0.482908
O         0.032666    1.117542    0.719195
O         0.844968   -0.698735   -0.477572
C        -0.073159    1.960057   -0.418439
H        -0.085543    2.978040   -0.039021
H        -0.994221    1.759514   -0.967211
H         0.777534    1.827319   -1.087740
C         2.189296   -0.744397   -0.029189
H         2.784123   -1.107896   -0.862759
H         2.292251   -1.430562    0.816159
H         2.539716    0.246168    0.267266
H         0.144414   -0.704689    1.455240
