14
0 2
S         1.640890   -0.738336    0.217388
C         0.368916    0.232518   -0.606358
O         0.570834    1.614898   -0.571495
N        -0.796916   -0.247381    0.076858
C        -1.905222   -0.695342   -0.733490
H        -1.538591   -1.281815   -1.573485
H        -2.496287    0.144835   -1.121767
H        -2.561579   -1.330266   -0.138857
C        -1.162792    0.399125    1.316332
H        -0.273546    0.605204    1.906646
H        -1.801114   -0.266708    1.896118
H        -1.701986    1.337606    1.142485
H         0.286773   -0.034868   -1.656718
H         1.038417    1.834054    0.242411
