12
0 1
Cl         2.465205    0.182548   -0.814726
S         1.444915   -0.220299    0.915817
C        -0.222107   -0.070229    0.375676
C        -0.865954    1.159057    0.346801
C        -0.940151   -1.204682    0.013597
N        -2.210856   -1.169803   -0.357258
C        -2.187940    1.200856   -0.045698
C        -2.813870    0.012070   -0.386423
H        -0.331137    2.056502    0.626683
H        -2.730813    2.134750   -0.085431
H        -0.456467   -2.174462    0.030266
H        -3.852586    0.010875   -0.697154
