14
0 2
S         1.007782    1.994337   -0.000013
C        -0.253300    0.818422   -0.000005
C        -0.009296   -0.552988    0.000001
C        -1.025803   -1.498554    0.000012
C        -2.331669   -1.075859    0.000015
C        -1.595139    1.221780   -0.000002
H        -1.826414    2.277772   -0.000008
C        -2.606838    0.290848    0.000008
H        -3.633917    0.630905    0.000009
H        -3.136656   -1.796317    0.000023
N         1.360340   -1.005526   -0.000003
O         2.233097   -0.140308   -0.000012
O         1.597279   -2.192205    0.000013
H        -0.760643   -2.544868    0.000017
