14
0 2
S        -2.916579   -0.972440   -0.000001
C        -1.482114   -0.035572    0.000001
C        -0.224510   -0.658824    0.000005
C         0.906585    0.121074    0.000002
C         0.856657    1.504656    0.000003
C        -1.536846    1.369569   -0.000002
H        -2.507268    1.845637   -0.000005
C        -0.382798    2.124715    0.000003
H        -0.441199    3.204094    0.000004
H         1.776556    2.068859    0.000003
N         2.224264   -0.538999   -0.000001
O         2.244540   -1.749116   -0.000005
O         3.204392    0.173426   -0.000003
H        -0.145977   -1.734744    0.000007
