9
0 1
Cl         2.262019    0.374901   -0.000015
S         0.744604   -0.943495    0.000009
C        -0.643708    0.175843    0.000001
O        -0.609540    1.363794   -0.000005
O        -1.732239   -0.590242    0.000010
C        -2.983125    0.111470    0.000008
H        -3.747331   -0.658343    0.000016
H        -3.062711    0.734313   -0.888392
H        -3.062706    0.734326    0.888399
