15
0 2
C        -0.573163    1.197709    0.257160
C        -1.894764    1.198244   -0.150960
C        -2.558789   -0.000001   -0.355559
C        -1.894763   -1.198245   -0.150959
C        -0.573162   -1.197708    0.257162
C         1.539840    0.000002    0.903149
C         0.096711    0.000001    0.474857
S         2.508174   -0.000001   -0.619791
H         1.765671   -0.888417    1.489239
H         1.765671    0.888423    1.489236
H        -0.052297    2.134225    0.411488
H        -2.408214    2.137129   -0.309856
H        -3.592569   -0.000002   -0.674197
H        -2.408212   -2.137130   -0.309853
H        -0.052295   -2.134223    0.411491
