9
0 2
S        -0.103038    1.936588   -0.010327
C        -0.055476    0.252312   -0.499522
N         1.238770   -0.477786   -0.152521
O         1.993104    0.044715    0.620977
O         1.371162   -1.541708   -0.704233
N        -1.173668   -0.569549    0.126762
H        -0.191001    0.172807   -1.575805
O        -0.958249   -1.045669    1.210432
O        -2.191422   -0.624931   -0.512366
