10
0 1
Cl         2.274453    0.848358   -0.307856
S         1.419643   -0.875491    0.306132
O        -0.042184   -0.829916   -0.446351
C        -1.040203   -0.093122    0.137668
O        -0.928881    0.583281    1.108663
O        -2.120754   -0.280949   -0.593215
C        -3.282363    0.429330   -0.148564
H        -3.092760    1.500578   -0.157026
H        -3.551299    0.116620    0.858192
H        -4.065964    0.171988   -0.853111
