7
0 1
Cl         1.848827    0.549705   -0.164052
S        -1.246424   -0.359377   -0.546360
S         0.422075   -0.820780    0.442538
C        -1.973854    0.971680    0.435238
H        -2.929087    1.211769   -0.030982
H        -1.331434    1.848273    0.410356
H        -2.136827    0.647407    1.459234
