9
0 1
Cl         1.482442   -0.593189    0.070108
S         0.210231    0.975152   -0.204669
C        -1.305021    0.305144    0.500181
C        -1.909292   -0.854272   -0.264664
H        -1.119274    0.052345    1.543541
H        -2.129388   -0.571168   -1.293230
H        -2.835752   -1.177030    0.212676
H        -1.227091   -1.702994   -0.283421
H        -1.967836    1.175409    0.490206
