12
0 1
Cl         1.661201   -0.000021   -0.620710
S         0.485975    0.000037    1.045922
C        -1.180158    0.000010    0.328619
C        -1.482811    1.265053   -0.454765
H        -1.308337    2.155327    0.146798
H        -2.524422    1.261863   -0.779956
H        -0.854655    1.324289   -1.343503
C        -1.482806   -1.265087   -0.454680
H        -1.766566    0.000040    1.255284
H        -0.854650   -1.324379   -1.343415
H        -2.524416   -1.261922   -0.779871
H        -1.308327   -2.155319    0.146942
