16
0 2
S         0.040442    1.605997   -0.510953
C         0.010106   -0.033471    0.361076
O         1.276331   -0.501999    0.635999
O        -0.604577   -0.964855   -0.484741
C         2.098942   -0.804071   -0.475152
H         3.071244   -1.067734   -0.067716
H         2.203794    0.069962   -1.123625
H         1.698150   -1.638962   -1.048459
C        -1.999436   -0.864794   -0.687075
H        -2.237211   -1.540795   -1.504621
H        -2.289520    0.150793   -0.962780
H        -2.554152   -1.173867    0.201340
C        -0.678974    0.149355    1.697836
H        -0.091692    0.826281    2.314410
H        -0.724098   -0.821234    2.192478
H        -1.681444    0.552324    1.584034
