7
0 1
S        -0.073247    0.904852    0.157329
Cl        -1.540693   -0.510420   -0.035532
O         1.202111    0.220225   -0.549045
C         1.910902   -0.759087    0.216941
H         2.818241   -0.978342   -0.340233
H         1.308006   -1.661971    0.313515
H         2.155195   -0.367457    1.204211
