11
0 2
S        -2.269895   -0.013625    0.000002
C        -0.515412    0.019978   -0.000008
C         0.191394    1.219209    0.000001
N         0.063554   -1.168274   -0.000004
C         1.391525   -1.214037    0.000004
C         1.568056    1.152802   -0.000001
C         2.189332   -0.086694    0.000001
H        -0.327714    2.167458    0.000009
H         2.154019    2.062519    0.000000
H         3.265972   -0.177200    0.000002
H         1.831798   -2.204413    0.000007
