15
0 1
Cl         3.105863    0.075675    0.000008
S         1.348731   -0.999429   -0.000009
C         0.155108    0.293849   -0.000003
C        -1.208164   -0.017016    0.000000
C        -2.201571    0.948420    0.000005
C        -1.850158    2.276667    0.000007
C         0.481120    1.649589    0.000001
H         1.516865    1.945407    0.000001
C        -0.503164    2.614936    0.000005
H        -0.209769    3.656213    0.000008
H        -2.611762    3.042854    0.000009
N        -1.608886   -1.402471   -0.000003
O        -0.696435   -2.223412   -0.000022
O        -2.781079   -1.694924    0.000011
H        -3.231422    0.625221    0.000006
