12
0 1
Cl         2.138213    0.636532   -0.000004
N        -0.609772   -0.817016    0.000001
C        -1.213760    1.563786    0.000003
C        -1.487550    0.091226    0.000004
C        -2.928324   -0.321823    0.000008
S         0.943775   -1.105849   -0.000004
H        -0.154802    1.791405    0.000027
H        -1.677154    2.020389    0.877168
H        -1.677110    2.020379   -0.877191
H        -3.020682   -1.404320   -0.000002
H        -3.437036    0.082337   -0.877952
H        -3.437025    0.082319    0.877983
