17
0 1
Cl         2.768065   -0.908764   -0.799478
S         2.070691    0.044977    0.877305
C         0.468103    0.557443    0.350716
C        -0.573770   -0.367583    0.314267
C        -1.839042    0.049950   -0.060399
C        -2.060506    1.390471   -0.374526
C         0.254005    1.886190    0.032014
H         1.076945    2.585358    0.058008
C        -1.024709    2.295536   -0.323376
H        -1.208201    3.332356   -0.570843
H        -3.059717    1.692910   -0.656200
H        -0.369957   -1.393826    0.576229
O        -2.916709   -0.762297   -0.139055
C        -2.745869   -2.132057    0.156554
H        -2.418584   -2.277675    1.188899
H        -2.025093   -2.596916   -0.520359
H        -3.719165   -2.594163    0.019439
