9
0 2
S        -1.761586   -0.341219   -0.000002
C        -0.104321    0.250980    0.000000
O         0.007858    1.459253   -0.000003
N         0.906382   -0.631994    0.000001
C         2.296587   -0.225943    0.000006
H         0.676541   -1.610553    0.000008
H         2.329934    0.859461   -0.000023
H         2.808893   -0.594873   -0.888717
H         2.808875   -0.594824    0.888760
