9
0 2
S        -1.314491   -1.175271   -0.075778
S        -0.162419    0.500774    0.052877
O         0.086642    0.644478    1.451170
O         1.182713    0.140845   -0.676702
C         2.079961   -0.787198   -0.045538
H         2.953458   -0.818547   -0.688228
H         1.617300   -1.772463    0.006982
H         2.344031   -0.434577    0.948007
O        -0.739854    1.532268   -0.727858
