7
0 2
N         0.359600    0.508649   -0.023294
S        -1.136461   -0.133038    0.002877
C         1.585743   -0.259058    0.004201
H         0.450670    1.508205    0.073814
H         1.387473   -1.247511   -0.402395
H         1.965749   -0.369618    1.023350
H         2.347825    0.231327   -0.602950
