11
0 1
Cl         2.314396    0.240140    0.274207
S         0.727103   -0.889143   -0.294409
C        -0.635046    0.230916    0.187452
O        -1.730872   -0.520264   -0.207607
O        -0.581014    1.478796   -0.394209
C        -2.955651   -0.106398    0.376987
H        -2.919518   -0.214688    1.464489
H        -3.728176   -0.756094   -0.024586
H        -3.177719    0.930692    0.121387
H        -0.500206    1.369519   -1.350711
H        -0.613484    0.399109    1.266332
