10
0 1
Cl         2.569587   -0.109115   -0.280710
S         0.910664   -1.045081    0.415680
C        -0.301470   -0.025034   -0.422630
N        -1.637775   -0.704793   -0.301064
O        -1.682860   -1.683639    0.403828
O        -2.538376   -0.207644   -0.921757
N        -0.458519    1.346992    0.209383
H        -0.080514    0.136671   -1.471980
O        -1.050414    1.400432    1.255395
O         0.060372    2.252651   -0.391128
