14
0 1
Cl        -2.116002    0.237842    0.318212
S        -0.697266   -0.499263   -0.931117
C         0.843904   -0.389866    0.122546
O         0.958754    0.817967    0.773470
O         1.847404   -0.637708   -0.816175
C         1.080807    1.987977   -0.009853
H         2.045988    2.025085   -0.521704
H         1.022626    2.823291    0.681837
H         0.270408    2.065598   -0.737398
C         0.882744   -1.472149    1.165619
H         0.045298   -1.351729    1.848669
H         1.814003   -1.383556    1.723487
H         0.829477   -2.447287    0.689714
H         1.806498    0.015636   -1.524567
