8
0 2
S        -1.722200   -0.065025   -0.000001
C        -0.036173    0.372061   -0.000013
N         0.896179   -0.463220    0.000014
H         0.114533    1.462096   -0.000044
C         2.253196    0.029077    0.000005
H         2.774203   -0.355288   -0.877688
H         2.774193   -0.355228    0.877730
H         2.316880    1.124537   -0.000032
