7
0 2
S         1.655675    0.030180   -0.000001
N         0.081666    0.161502   -0.000001
N        -0.913396   -0.531116    0.000003
C        -2.186947    0.182945    0.000001
H        -2.747324   -0.128860    0.881022
H        -2.747326   -0.128870   -0.881015
H        -2.052362    1.264481   -0.000006
