7
0 1
Cl         1.829224    0.305238   -0.000002
S         0.230451   -0.964082    0.000006
C        -1.216441    0.090755   -0.000002
O        -2.259260   -0.510603   -0.000002
N        -1.055009    1.420013   -0.000005
H        -0.144789    1.843511    0.000000
H        -1.881445    1.992951   -0.000006
