9
0 1
Cl        -2.361437    0.429470   -0.000008
S        -0.913901   -1.002573    0.000004
C         0.593153   -0.143591    0.000002
S         1.916857   -1.094034    0.000007
O         0.513879    1.160854   -0.000002
C         1.730571    1.916499   -0.000003
H         1.417570    2.955129   -0.000005
H         2.313089    1.682660   -0.888616
H         2.313088    1.682664    0.888611
