16
0 2
S        -3.167315   -0.219432   -0.000004
C        -1.476445   -0.028000   -0.000002
C        -0.881426    1.253764    0.000000
C         0.477378    1.405018    0.000002
C         1.309367    0.279704    0.000001
C        -0.617414   -1.141025   -0.000003
H        -1.057900   -2.128323   -0.000004
C         0.752258   -0.998576   -0.000001
H         1.378787   -1.877204   -0.000002
H        -1.528216    2.119953    0.000001
O         2.629280    0.528467    0.000003
C         3.532003   -0.560198    0.000006
H         3.405784   -1.177109    0.892041
H         4.526611   -0.124510    0.000009
H         3.405790   -1.177108   -0.892032
H         0.937624    2.383355    0.000004
