10
0 1
F        -2.164961    0.389021   -0.480156
S        -1.213129   -0.684215    0.285119
C         0.339172    0.073474    0.032829
N         1.257520   -0.778558   -0.177465
O         2.514758   -0.198223   -0.119947
H         3.103959   -0.930675   -0.327285
C         0.518220    1.541493    0.215131
H        -0.434440    2.058585    0.142078
H         1.204710    1.926321   -0.536654
H         0.955438    1.737902    1.195431
