7
0 1
S         0.650961   -0.566927    0.166063
F         1.366826    0.868366   -0.087141
O        -0.766682   -0.341658   -0.532376
C        -1.758984    0.384760    0.208685
H        -2.704401    0.211287   -0.298951
H        -1.521292    1.447385    0.198293
H        -1.803762    0.021571    1.234826
