11
0 2
N        -0.350351   -0.566376    0.000000
C         0.942379    1.463177   -0.000001
C         0.793274   -0.029491   -0.000001
C         2.018419   -0.886588   -0.000002
S        -1.873367   -0.098266    0.000002
H         0.449255    1.885510    0.878312
H         0.449241    1.885512   -0.878305
H         1.987247    1.766044   -0.000008
H         1.752866   -1.940362   -0.000001
H         2.631649   -0.671196    0.878115
H         2.631647   -0.671198   -0.878120
