9
0 1
F        -2.948713    0.467075   -0.426460
C        -0.721348    0.145683    0.240071
C        -2.126008   -0.338928    0.347257
H        -2.484545   -0.270668    1.377662
H        -2.204510   -1.366916   -0.004242
N         0.216426   -0.665504   -0.007138
S         1.782742   -0.489085   -0.145278
F         2.090331    1.096503    0.102631
H        -0.540213    1.208733    0.391475
