13
0 2
S        -0.991109   -1.291938   -0.100451
C        -0.215444    0.376269    0.044167
O         0.967485    0.349512   -0.695822
O        -0.023685    0.653554    1.395755
C         2.074950   -0.330571   -0.134586
H         2.467200    0.207774    0.729854
H         2.835727   -0.360477   -0.909681
H         1.816956   -1.352743    0.150935
C        -1.074455    1.468131   -0.538211
H        -1.204701    1.304312   -1.604699
H        -0.579408    2.425125   -0.376311
H        -2.046810    1.473863   -0.051901
H         0.308079   -0.134349    1.841341
