22
0 1
C        -0.422622    0.982687    0.129958
C        -1.783648    1.473167   -0.348216
C        -2.914049    0.602075    0.184514
C        -2.693247   -0.862015   -0.174240
C        -1.331631   -1.351503    0.303553
C         1.141521   -1.011312    0.281835
C        -0.192034   -0.482785   -0.228879
S         2.625000   -0.279982   -0.389410
F         2.686102    1.093707    0.485999
H        -0.355629    1.094815    1.218008
H         0.370428    1.599778   -0.292333
H        -1.805155    1.460592   -1.442831
H        -1.930419    2.512089   -0.047564
H        -3.874585    0.945798   -0.203925
H        -2.963208    0.702112    1.273816
H        -2.755776   -0.979752   -1.260831
H        -3.483748   -1.482630    0.251947
H        -1.178242   -2.391538    0.004109
H        -1.306548   -1.335309    1.398998
H         1.257760   -2.067936    0.016266
H         1.206832   -0.958036    1.371283
H        -0.182371   -0.565517   -1.321510
