9
0 1
F        -2.135408   -1.206315   -0.000008
S        -1.703438    0.360791   -0.000007
C         0.001428    0.312598    0.000001
S         0.647117    1.816990    0.000004
S         0.781992   -1.220460    0.000005
C         2.507405   -0.729653    0.000004
H         3.073608   -1.658851    0.000003
H         2.740668   -0.149569    0.888598
H         2.740667   -0.149568   -0.888590
