13
0 2
S        -2.454846    0.128772   -0.000011
O        -0.888413    0.567473    0.000007
C         0.099470   -0.429167    0.000004
O        -0.158959   -1.596571   -0.000005
N         1.322214    0.133060    0.000007
C         1.594408    1.555738    0.000004
H         2.176575    1.822547   -0.884927
H         2.176591    1.822546    0.884925
H         0.673025    2.123109    0.000013
C         2.479877   -0.736172    0.000005
H         3.090473   -0.550036    0.886206
H         3.090465   -0.550044   -0.886204
H         2.151350   -1.769509    0.000011
