8
0 2
S         1.500211    0.000035    0.037659
C        -0.328056    0.000002   -0.022313
O        -0.792780    1.093082   -0.725082
H        -0.606769    1.884128   -0.206744
O        -0.796800    0.000007    1.288669
H        -1.763688    0.000019    1.236341
O        -0.792660   -1.093159   -0.725042
H        -0.606656   -1.884156   -0.206627
