21
0 2
C         0.224063   -1.049775    0.339567
C         1.603970   -1.451256   -0.165177
C         2.647905   -0.392723    0.169517
C         2.232802    0.976053   -0.356072
C         0.849190    1.370791    0.147059
C        -1.565822    0.727510    0.340790
C        -0.201748    0.315011   -0.191859
S        -2.954719   -0.276215   -0.177365
H         0.236191   -1.011305    1.435438
H        -0.517820   -1.800052    0.059002
H         1.563126   -1.587202   -1.250635
H         1.891726   -2.415461    0.257948
H         3.619997   -0.675405   -0.238966
H         2.769247   -0.338746    1.256468
H         2.222355    0.952857   -1.450498
H         2.965667    1.732169   -0.068054
H         0.556260    2.336287   -0.273085
H         0.883492    1.501253    1.234733
H        -1.815207    1.745365    0.020571
H        -1.563782    0.760283    1.434601
H        -0.277921    0.245724   -1.282638
