8
0 1
F        -2.040876   -0.720707    0.068457
S        -1.275047    0.709199   -0.014535
P         0.699082    0.093071   -0.041026
O         1.479194    1.317849   -0.126867
O         0.964927   -0.850764    1.211968
H         1.135505   -0.365619    2.028282
O         0.810260   -0.972742   -1.194792
H         1.111851   -1.846030   -0.918918
