8
0 1
F         1.737032   -0.948011    0.536022
S         1.405258    0.505893   -0.086896
C        -0.096799    0.102343   -0.904771
N        -1.309164    0.011855    0.001795
H        -0.031917   -0.842754   -1.435643
H        -0.302428    0.923663   -1.591760
O        -1.960732   -1.002312   -0.081822
O        -1.544034    0.959794    0.708024
