7
0 2
S         1.721035    0.000001   -0.270765
C         0.319129   -0.000008    0.802895
N        -0.982876    0.000000    0.050163
H         0.324740    0.895648    1.421730
H         0.324738   -0.895675    1.421715
O        -1.451289    1.078287   -0.229977
O        -1.451297   -1.078280   -0.229986
