9
0 1
F        -2.043406    0.701495    0.201127
S        -1.261018   -0.618692   -0.296444
S         0.697893   -0.081622    0.156294
O         1.380100   -1.296340   -0.175075
C         1.110655    1.171246   -1.020293
O         0.761766    0.499748    1.456576
H         1.046414    0.751284   -2.019347
H         2.129211    1.479636   -0.788856
H         0.426171    2.005910   -0.889783
