8
0 2
S        -1.703582   -0.031652   -0.000014
N        -0.128455   -0.206559   -0.000004
C         0.944000    0.452217    0.000013
C         2.282271   -0.203502    0.000016
H         2.179441   -1.286147   -0.000002
H         2.855547    0.101104    0.878331
H         2.855565    0.101132   -0.878276
H         0.908317    1.543973    0.000029
