7
0 2
S         1.691291    0.075141    0.131884
P        -0.324785   -0.077620   -0.111905
O        -0.586567   -1.114101   -1.109081
O        -1.031602   -0.327244    1.294801
H        -1.075957   -1.263694    1.523486
O        -0.802603    1.401076   -0.397680
H        -1.746759    1.547884   -0.259385
