14
0 2
S         3.417333    0.000000    0.000001
C         1.705077    0.000000   -0.000001
C         0.988950    1.210799   -0.000003
C        -0.387161    1.214402   -0.000004
C        -1.051510    0.000000   -0.000003
C         0.988950   -1.210799    0.000000
H         1.539765   -2.140267    0.000002
C        -0.387161   -1.214402   -0.000001
H        -0.953999   -2.132449    0.000000
N        -2.523669    0.000000   -0.000003
O        -3.082878    1.074737    0.000005
O        -3.082878   -1.074737    0.000005
H         1.539765    2.140267   -0.000003
H        -0.953999    2.132449   -0.000005
