15
0 1
F        -1.492130   -0.802797    0.954040
S        -0.969354   -0.706174   -0.588243
C         0.186405    0.658178   -0.407329
C         1.378033    0.322183    0.487892
C        -0.516419    1.938682    0.019305
H        -0.931811    1.829100    1.020943
H        -1.329015    2.188637   -0.660392
H         0.192014    2.768128    0.038140
H         0.532348    0.758162   -1.445049
C         2.280340   -0.776303   -0.045752
H         1.002112    0.056138    1.478315
H         1.956638    1.240419    0.618960
H         1.734951   -1.711305   -0.167566
H         3.112365   -0.957807    0.634326
H         2.699077   -0.503960   -1.016849
