14
0 2
S         1.640890   -0.738336    0.217388
C         0.368916    0.232518   -0.606358
O         0.570834    1.614898   -0.571495
N        -0.796916   -0.247381    0.076858
C        -1.905222   -0.695342   -0.733490
H        -1.538591   -1.281816   -1.573485
H        -2.496287    0.144834   -1.121767
H        -2.561579   -1.330266   -0.138857
C        -1.162792    0.399126    1.316332
H        -0.273546    0.605205    1.906645
H        -1.801115   -0.266707    1.896118
H        -1.701986    1.337606    1.142485
H         0.286773   -0.034869   -1.656718
H         1.038418    1.834054    0.242411
