17
0 1
F        -2.383080   -1.550963    0.645032
S        -2.457770   -0.264629   -0.351952
C        -0.860046    0.406722   -0.105284
C         0.267296   -0.412797   -0.137724
C         1.519137    0.158047    0.004406
C         1.645133    1.542700    0.126017
C        -0.744926    1.776907    0.046873
H        -1.630195    2.393657    0.109380
C         0.523326    2.338277    0.135862
H         0.628455    3.409473    0.243224
H         2.636933    1.962687    0.218800
H         0.141924   -1.476295   -0.265790
O         2.675101   -0.542154    0.014772
C         2.609556   -1.947243   -0.103413
H         2.169927   -2.245326   -1.058380
H         2.032606   -2.387399    0.713349
H         3.634733   -2.302511   -0.053229
