9
0 1
F         2.244069    0.501271   -0.000002
S         1.207758   -0.718463   -0.000003
C        -0.290105    0.223405    0.000000
O        -0.370067    1.409953    0.000001
O        -1.292804   -0.651913    0.000002
C        -2.611981   -0.088310    0.000004
H        -3.289495   -0.935334    0.000002
H        -2.757882    0.522207   -0.888485
H        -2.757881    0.522203    0.888496
