17
0 1
F         3.246366   -0.190233    1.107017
S         2.770995   -0.135666   -0.462177
C         1.047416    0.026560   -0.267923
C         0.457465    1.289015   -0.158414
C        -0.902477    1.416237   -0.021099
C        -1.709602    0.278472    0.004736
C         0.233014   -1.098660   -0.243978
H         0.685717   -2.076791   -0.331087
C        -1.138326   -0.984748   -0.108945
H        -1.747308   -1.875189   -0.094245
H         1.087132    2.167725   -0.181477
O        -3.030040    0.500263    0.139588
C        -3.907111   -0.607212    0.177191
H        -3.857959   -1.182478   -0.749928
H        -4.905301   -0.195608    0.293306
H        -3.683533   -1.260139    1.023642
H        -1.373920    2.385139    0.065347
