9
0 1
S        -1.250942   -0.569197   -0.000012
F        -1.709460    1.006485    0.000008
N         0.336816   -0.572732   -0.000001
C         1.192552    0.358258    0.000013
C         2.653803    0.076591    0.000005
H         2.838504   -0.995181   -0.000005
H         3.127603    0.522089    0.877579
H         3.127599    0.522105   -0.877563
H         0.870662    1.399798    0.000013
