7
0 1
F         1.717666    0.763721   -0.452550
S        -0.821901   -0.565697   -0.395754
S         0.935946   -0.342063    0.470320
C        -1.847924    0.765743    0.279477
H        -2.859431    0.593845   -0.087650
H        -1.494698    1.730123   -0.074585
H        -1.842045    0.732232    1.365258
