18
0 1
F         2.320758   -0.229107   -0.063703
S         1.109486   -0.313510   -1.150739
C        -0.320565    0.094723   -0.043278
O        -1.337050   -0.399096   -0.830032
O        -0.512252    1.435822    0.148159
O        -0.223747   -0.494019    1.197053
C        -2.655516    0.026678   -0.492241
H        -3.323737   -0.594151   -1.082302
H        -2.799880    1.075736   -0.741561
H        -2.848804   -0.127145    0.569600
C         0.505663    2.142605    0.840378
H         0.132135    3.154851    0.966025
H         1.424614    2.164384    0.252497
H         0.701345    1.694675    1.813199
C        -0.069523   -1.905302    1.240471
H        -0.242411   -2.190727    2.274624
H         0.938245   -2.195791    0.944727
H        -0.796063   -2.397587    0.594920
