9
0 2
S        -1.761588   -0.341221    0.000001
C        -0.104319    0.250978   -0.000001
O         0.007841    1.459249    0.000000
N         0.906388   -0.631991   -0.000007
C         2.296597   -0.225935    0.000003
H         0.676563   -1.610553    0.000015
H         2.329948    0.859469   -0.000127
H         2.808921   -0.594952   -0.888672
H         2.808857   -0.594734    0.888806
