18
0 2
C         1.249592   -0.429594    0.000000
S         2.762147    0.338796    0.000000
C         0.000000    0.299819    0.000000
C        -0.057670    1.703226    0.000000
H         0.870237    2.255916    0.000000
C        -1.259794    2.356778    0.000000
H        -1.282079    3.438400    0.000000
C        -2.464268    1.638039    0.000000
H        -3.408021    2.166632    0.000000
C        -2.440055    0.273318    0.000000
H        -3.362200   -0.293927    0.000000
C        -1.215648   -0.425542    0.000000
C        -1.187658   -1.840034    0.000000
H        -2.128464   -2.376016    0.000000
C        -0.000863   -2.523540    0.000000
H         0.006021   -3.605030    0.000000
C         1.204177   -1.826658    0.000000
H         2.143287   -2.361584    0.000000
