14
0 1
F        -2.364332    0.295612    0.041763
S        -1.224675   -0.834465   -0.206671
C         0.253531    0.205260    0.080546
O         1.212631   -0.799739   -0.087124
O         0.275194    0.744425    1.358057
C         2.567375   -0.381791   -0.105152
H         2.806957    0.151034   -1.027286
H         3.165552   -1.287256   -0.051483
H         2.791156    0.252605    0.753721
C         0.348841    1.353569   -0.895228
H         0.475953    0.975178   -1.906640
H         1.184381    2.000034   -0.630096
H        -0.564311    1.942354   -0.845015
H         0.093017    0.037264    1.989213
