14
0 2
S         1.515699   -0.000002   -0.076597
C        -0.301818    0.000000   -0.006158
C        -0.853724    1.254249   -0.676551
H        -0.473628    2.153615   -0.194550
H        -1.944679    1.260006   -0.615130
H        -0.576465    1.291135   -1.730127
C        -0.853729   -1.254241   -0.676561
H        -1.944685   -1.259996   -0.615139
H        -0.473636   -2.153612   -0.194567
H        -0.576471   -1.291120   -1.730137
C        -0.655239   -0.000005    1.483553
H        -0.266014    0.885300    1.985717
H        -0.266014   -0.885313    1.985712
H        -1.742536   -0.000006    1.588074
