15
0 1
F         1.480885   -1.344989    0.301443
S         1.785724    0.102308   -0.383301
C         0.560789    1.102294    0.447259
C        -0.873751    0.975790   -0.040853
H         0.647065    0.914147    1.519411
C        -1.509810   -0.382625    0.213695
H        -0.906222    1.200968   -1.109844
H        -1.466093    1.749269    0.459324
C        -2.962860   -0.430930   -0.230059
H        -1.439637   -0.619749    1.279146
H        -0.939173   -1.154188   -0.305368
H        -3.563653    0.310676    0.300223
H        -3.402721   -1.410483   -0.042427
H        -3.053600   -0.225970   -1.298494
H         0.938284    2.116139    0.277604
