8
0 2
S         1.657278    0.226362   -0.000021
S        -0.345871   -0.201636    0.000005
O        -0.621461   -0.846273    1.248234
C        -1.169719    1.364408    0.000002
O        -0.621495   -0.846294   -1.248205
H        -0.892473    1.908871    0.898018
H        -2.235588    1.140734    0.000017
H        -0.892495    1.908855   -0.898030
