8
0 2
S        -1.735832   -0.316291    0.000000
C        -0.088292    0.269329    0.000000
O         0.153766    1.442962    0.000000
O         0.805472   -0.710702    0.000000
C         2.180245   -0.297241    0.000000
H         2.757135   -1.215851    0.000000
H         2.395278    0.292955    0.888153
H         2.395278    0.292955   -0.888153
