12
0 1
F        -1.701603    1.053695    0.195372
S        -1.401063   -0.506304   -0.166300
C         0.295823   -0.587783    0.372860
C         1.266876    0.272286   -0.419366
H         0.337959   -0.360798    1.439927
C         2.690853    0.147014    0.100927
H         0.941161    1.312218   -0.365030
H         1.218770   -0.015497   -1.471051
H         2.758678    0.456258    1.145367
H         3.373904    0.771706   -0.474290
H         0.532134   -1.652621    0.264986
H         3.047519   -0.882747    0.036020
