9
0 1
F        -1.897670    0.598530    0.090733
S        -0.985021   -0.747355   -0.030162
C         0.649099    0.050160   -0.024602
O         1.514590   -1.008457   -0.230191
H         1.843638   -1.279105    0.634930
O         0.860840    0.656068    1.203510
H         1.449884    1.406688    1.051148
O         0.830171    0.942420   -1.056386
H         0.006438    1.422123   -1.207932
