15
0 1
F         2.613855    0.031301   -0.149360
S         1.231919   -0.746275    0.246307
C        -0.022465    0.285945   -0.533473
O         0.143489    1.655050   -0.346649
N        -1.186338   -0.332374    0.041146
C        -2.279789   -0.557796   -0.884502
H        -1.911524   -1.050362   -1.782509
H        -2.782787    0.374492   -1.172955
H        -3.015253   -1.214253   -0.420477
C        -1.624993    0.213291    1.311986
H        -0.781300    0.314574    1.991592
H        -2.334028   -0.476583    1.767433
H        -2.112301    1.189413    1.200518
H        -0.030053    0.134344   -1.610099
H         0.451785    1.824634    0.550932
