11
0 1
S         0.759624    0.940884   -0.568855
S        -0.923040    0.964889    0.493293
N        -1.860908   -0.447913   -0.209894
C         1.759566   -0.315117    0.326766
C         3.093646   -0.521157   -0.321583
O         1.345794   -0.889907    1.277333
O        -1.358663   -1.137099   -1.046601
O        -2.951993   -0.547611    0.284463
H         3.550670    0.429927   -0.593112
H         2.950613   -1.098168   -1.236851
H         3.739353   -1.074146    0.355558
