10
0 2
S         1.806859   -0.314835    0.000000
C         0.139112    0.268973    0.000002
O        -0.028933    1.457762   -0.000002
C        -2.345533   -0.148234   -0.000010
H        -3.101454   -0.932424   -0.000001
H        -2.496821    0.477069   -0.878125
H        -2.496832    0.477099    0.878082
C        -0.956601   -0.761250    0.000009
H        -0.802522   -1.401725   -0.872397
H        -0.802534   -1.401696    0.872439
