22
0 1
S        -0.870490    1.450404    0.517572
S         0.870491    1.450406   -0.517566
C         1.748318    0.067778    0.241611
C        -1.748320    0.067783   -0.241614
O        -1.285093   -0.607428   -1.111381
O         1.285084   -0.607444    1.111365
C        -3.082127   -0.122965    0.363008
C        -4.164933   -0.681283   -0.525790
C        -3.561819   -1.545347    0.514663
H        -3.884068   -0.863761   -1.552866
H        -5.163323   -0.298298   -0.373389
H        -4.132808   -1.772277    1.402914
H        -2.871262   -2.311256    0.193033
H        -3.365677    0.589455    1.124956
C         3.082130   -0.122960   -0.363003
C         4.164929   -0.681287    0.525798
C         3.561826   -1.545340   -0.514670
H         3.365685    0.589469   -1.124939
H         4.132825   -1.772258   -1.402918
H         2.871269   -2.311254   -0.193055
H         3.884055   -0.863777    1.552870
H         5.163320   -0.298298    0.373412
