27
0 1
C         3.082112    0.792469    0.050949
O         2.327376    1.631375   -0.330648
S         2.785325   -0.977628   -0.147220
S         0.975174   -0.984967   -1.061244
C        -0.124434   -0.527014    0.297351
O         0.253758   -0.346814    1.412964
C         4.358947    1.065169    0.793314
H         4.793348    1.990729    0.421934
H         5.072216    0.247803    0.702752
H         4.112823    1.194179    1.848348
C        -1.543498   -0.343720   -0.176959
C        -2.530429   -1.023673    0.770903
C        -3.967976   -0.768363    0.335631
H        -2.366713   -0.631907    1.776906
H        -2.328477   -2.095706    0.812311
C        -4.260249    0.722217    0.212065
H        -4.654811   -1.232384    1.045538
H        -4.145551   -1.252219   -0.630396
C        -3.270441    1.404798   -0.724156
H        -4.195083    1.184412    1.202123
H        -5.281702    0.878233   -0.139470
C        -1.831658    1.159774   -0.289830
H        -3.462963    2.478244   -0.764554
H        -3.411371    1.024452   -1.741046
H        -1.130870    1.621414   -0.986921
H        -1.654121    1.615613    0.687410
H        -1.638022   -0.787768   -1.173650
