11
0 1
S         1.041029   -0.459808    0.969806
S        -0.246860   -1.145578   -0.394624
O        -1.248084    0.156102   -0.738720
C         2.349188    0.267074   -0.084570
F         3.289725    0.732071    0.738107
F         1.900576    1.270914   -0.828465
F         2.903397   -0.625405   -0.897826
C        -2.392767    0.273567   -0.011552
F        -3.035678    1.337554   -0.457765
F        -2.149951    0.432034    1.289325
F        -3.181463   -0.792332   -0.145200
