14
0 2
S         2.553464   -0.008591   -0.000009
C         1.172108   -1.079650    0.000003
O         1.414910   -2.263485    0.000011
C        -0.233656   -0.574041    0.000003
C        -1.224915   -1.553589    0.000011
C        -2.562314   -1.222795    0.000014
C        -2.937482    0.111168    0.000009
C        -1.975304    1.101573    0.000000
C        -0.634955    0.756933   -0.000004
H        -3.312266   -2.001393    0.000021
H        -2.252915    2.145580   -0.000003
H        -0.902119   -2.584985    0.000016
H        -3.983600    0.385933    0.000011
Cl         0.509136    2.062506   -0.000012
