7
0 2
S         1.934148   -0.464729    0.000000
C         0.531720    0.572433    0.000000
O         0.608075    1.762829    0.000003
C        -0.844560   -0.133091   -0.000001
F        -0.701080   -1.462417   -0.000009
F        -1.534682    0.214380   -1.079638
F        -1.534675    0.214368    1.079645
