28
0 1
S         0.023695    1.075548   -0.742539
S         1.229350   -0.562682   -0.889763
C         2.696262   -0.224898    0.190769
C         3.556609   -1.469680   -0.005134
H         4.482437   -1.360910    0.562077
H         3.818429   -1.611914   -1.053897
H         3.046181   -2.365992    0.348064
C         3.424746    1.012614   -0.312283
H         4.324831    1.178925    0.283783
H         2.796225    1.898485   -0.225408
H         3.717123    0.899318   -1.355514
C         2.316504   -0.061831    1.650833
H         1.659981    0.795066    1.790008
H         3.218057    0.107503    2.243530
H         1.817348   -0.949666    2.035835
C        -1.482071    0.545050    0.198354
C        -1.156607   -0.010984    1.569722
H        -0.513449   -0.885863    1.494188
H        -2.075963   -0.308574    2.073187
H        -0.656810    0.738845    2.179753
C        -2.300982    1.826452    0.300407
H        -1.777899    2.570328    0.900242
H        -3.257223    1.610707    0.775351
H        -2.499311    2.252876   -0.683652
C        -2.171192   -0.486653   -0.686212
Cl        -3.735602   -1.065867   -0.013114
H        -1.548581   -1.368400   -0.804300
H        -2.394485   -0.067259   -1.662218
