22
0 1
C        -1.794213    0.330909    0.287961
S        -0.570885   -0.167053   -0.984551
S         0.845878   -1.211325    0.038351
C         2.145365    0.018808    0.430671
C        -2.472462   -0.865524    0.924506
C         1.649065    1.144204    1.319029
H        -1.744537   -1.529065    1.388713
H        -3.028923   -1.434140    0.178229
H         1.177433    0.762318    2.223440
H         0.926640    1.760472    0.782654
C        -2.782332    1.250049   -0.412727
H        -2.289226    2.126621   -0.832283
H        -3.538962    1.589278    0.295961
H        -3.294461    0.726424   -1.222000
C         2.833292    0.536187   -0.819537
H         3.236660   -0.280202   -1.416391
H         3.651406    1.207214   -0.550327
H         2.128831    1.094979   -1.436562
H         2.844204   -0.604615    0.996397
H         2.481394    1.788225    1.608933
H        -1.251801    0.893158    1.046804
H        -3.170835   -0.534413    1.696206
