9
0 1
S        -1.251245   -1.050018   -0.308658
S         0.304730   -0.867433    0.974409
C        -2.206072    0.395450    0.115917
S         1.607995    0.347659   -0.106057
F         2.181270   -0.683002   -1.136514
O         0.915962    1.311888   -0.871623
O         2.659296    0.653440    0.787738
O        -1.997165    1.229180    0.907542
F        -3.289268    0.370548   -0.667915
