14
0 1
C        -3.077476   -0.631941    0.249932
C        -1.716325   -0.376393   -0.330622
H        -3.725059   -1.029550   -0.528365
H        -3.514934    0.263984    0.687021
H        -2.972441   -1.383261    1.034054
C         3.077473   -0.631944   -0.249936
C         1.716327   -0.376391    0.330625
H         2.972421   -1.383209   -1.034109
H         3.725040   -1.029621    0.528339
H         3.514959    0.263997   -0.686966
O        -1.205263   -1.034907   -1.180839
O         1.205266   -1.034899    1.180848
S        -0.902505    1.029878    0.460886
S         0.902505    1.029879   -0.460888
