23
0 1
C        -1.795893    0.174649   -0.138929
O        -1.126109    1.058742   -0.573365
S        -1.238767   -1.545750   -0.065504
S         0.647856   -1.385443   -0.791855
C         1.499995   -0.581880    0.578385
O         0.960393   -0.277322    1.596774
C        -3.172976    0.337796    0.452047
C         2.947340   -0.300954    0.263756
C         3.242065    1.197609    0.335002
H         3.207073   -0.699027   -0.719196
H         3.536309   -0.839443    1.009125
C         2.515944    1.998209   -0.735529
H         4.320596    1.336593    0.240741
H         2.961568    1.555012    1.326704
H         1.433198    1.902234   -0.645993
H         2.795999    1.660927   -1.735447
H         2.764230    3.056771   -0.660438
C        -3.814233    1.663995    0.087188
H        -3.050761    0.246037    1.535117
H        -3.790843   -0.509100    0.145643
H        -3.189963    2.495866    0.406704
H        -4.788186    1.756277    0.566028
H        -3.952363    1.749044   -0.990031
