10
0 2
S        -1.806859   -0.314835    0.000007
C        -0.139112    0.268974    0.000000
O         0.028933    1.457762    0.000006
C         2.345533   -0.148234   -0.000002
H         3.101454   -0.932424   -0.000016
H         2.496825    0.477067    0.878114
H         2.496827    0.477101   -0.878093
C         0.956600   -0.761250   -0.000016
H         0.802530   -1.401694   -0.872446
H         0.802526   -1.401727    0.872389
