19
0 1
S         2.489176    0.579370    0.084409
S         1.200939   -1.005741   -0.038305
C        -0.284982   -0.444587    0.847502
C        -1.431676    0.115835   -0.002822
C        -2.535375    0.547937    0.963588
H        -2.873792   -0.289316    1.576752
H        -3.397667    0.929879    0.415052
H        -2.186984    1.336936    1.632449
C        -1.969930   -0.964347   -0.937803
H        -2.337417   -1.824223   -0.374141
H        -1.196643   -1.313108   -1.622806
H        -2.797112   -0.577181   -1.534458
C        -0.975086    1.320885   -0.820410
H        -0.540220    2.092250   -0.182870
H        -1.821292    1.758888   -1.351674
H        -0.231854    1.031425   -1.563475
H         0.043599    0.284463    1.587120
H        -0.634459   -1.326158    1.389523
H         2.114290    1.263743   -1.009469
