16
0 1
C         1.018938    2.661545    0.343210
C         1.420153    1.243670    0.692049
H         1.510138    2.991210   -0.571835
H         1.294253    3.344842    1.148571
H        -0.058201    2.730496    0.195018
C        -1.018938   -2.661545    0.343210
C        -1.420153   -1.243670    0.692049
H        -1.294253   -3.344842    1.148571
H         0.058201   -2.730496    0.195018
H        -1.510138   -2.991210   -0.571835
S         1.018938    0.017967   -0.588615
H         0.973714    0.921800    1.632391
H         2.503046    1.154667    0.802139
S        -1.018938   -0.017967   -0.588615
H        -0.973714   -0.921800    1.632391
H        -2.503046   -1.154667    0.802139
