7
0 2
S        -1.314024   -0.216860    0.000002
C         0.396928    0.216459   -0.000002
O         0.669496    1.385800   -0.000003
C         1.396128   -0.898240    0.000000
H         1.255282   -1.524048    0.881710
H         2.399518   -0.477840   -0.000009
H         1.255271   -1.524063   -0.881697
