12
0 1
S         0.708200   -1.295218   -0.577435
S         2.353612   -0.855464    0.524963
C         2.888538    0.642572   -0.262036
C        -0.491916   -0.234868    0.211604
O        -1.678626   -0.496316   -0.414823
O        -0.319169    0.540811    1.082040
O         2.400222    1.252574   -1.134066
F         4.023932    1.011101    0.344936
C        -2.804482    0.204068   -0.033289
F        -3.106885   -0.018459    1.235169
F        -3.789976   -0.233715   -0.794299
F        -2.656098    1.503710   -0.221733
