20
0 1
C         2.005661    0.791726   -0.109399
O         1.158098    1.521458   -0.520165
S         1.838012   -1.005426   -0.070072
S        -0.032404   -1.252358   -0.814694
C        -1.050393   -0.689211    0.563888
O        -0.597568   -0.299473    1.595061
C         3.310061    1.244431    0.480829
H         3.137767    1.482763    1.531490
H         3.635852    2.146943   -0.031581
H         4.078923    0.476013    0.422789
C        -2.521678   -0.727037    0.238093
C        -3.140156    0.667846    0.336294
H        -2.982433   -1.398542    0.965555
H        -2.680418   -1.150423   -0.755705
C        -2.602043    1.632332   -0.709833
H        -2.951786    1.056271    1.338056
H        -4.222119    0.567379    0.233015
H        -1.525541    1.776287   -0.610023
H        -3.078816    2.607906   -0.616379
H        -2.794121    1.263539   -1.719356
