14
0 2
S         1.515699   -0.000006   -0.076597
C        -0.301818    0.000000   -0.006158
C        -0.853739   -1.254225   -0.676584
H        -1.944694   -1.259974   -0.615160
H        -0.473650   -2.153608   -0.194608
H        -0.576481   -1.291085   -1.730161
C        -0.655239   -0.000029    1.483553
H        -1.742536   -0.000032    1.588074
H        -0.266013    0.885267    1.985731
H        -0.266015   -0.885346    1.985698
C        -0.853714    1.254265   -0.676528
H        -0.473614    2.153619   -0.194509
H        -1.944670    1.260027   -0.615108
H        -0.576454    1.291170   -1.730103
