10
0 1
S        -1.544768   -0.529290    0.151002
S        -0.190786    0.955633   -0.237729
C         1.344319    0.320743    0.492211
C         1.937809   -0.869678   -0.230254
H         1.157922    0.100280    1.542317
H         2.015958    1.181251    0.451377
H         1.258198   -1.721069   -0.195830
H         2.873965   -1.173135    0.241254
H         2.139319   -0.633670   -1.275001
H        -1.369261   -1.281533   -0.948219
