10
0 2
S        -1.806856   -0.314824    0.000009
C        -0.139122    0.268961   -0.000005
O         0.028949    1.457750    0.000000
C         0.956597   -0.761265   -0.000009
C         2.345523   -0.148225   -0.000005
H         0.802528   -1.401714   -0.872434
H         0.802527   -1.401723    0.872409
H         2.496800    0.477100   -0.878104
H         3.101460   -0.932400   -0.000009
H         2.496799    0.477091    0.878102
