20
0 2
S        -2.817868   -0.000078   -0.723137
C        -1.463487    0.000056    0.406891
O        -1.680293    0.000177    1.588075
C        -0.087741   -0.000004   -0.209140
C         0.671336    1.263403    0.209034
C         2.089850    1.257744   -0.345830
H         0.695882    1.302288    1.300306
H         0.131627    2.149940   -0.129373
C         2.845805   -0.000019    0.064482
H         2.620444    2.148425   -0.005073
H         2.051992    1.316746   -1.438433
C         2.089814   -1.257814   -0.345666
H         2.980942    0.000054    1.150617
H         3.844680   -0.000063   -0.375246
C         0.671299   -1.263368    0.209203
H         2.620384   -2.148464   -0.004794
H         2.051948   -1.316957   -1.438261
H         0.131576   -2.149943   -0.129085
H         0.695849   -1.302112    1.300480
H        -0.198339   -0.000075   -1.299395
