14
0 2
S         2.292407   -0.521352    0.176238
C         0.810751    0.404418   -0.064074
O         0.877737    1.479139   -0.598105
C        -0.461114   -0.250007    0.376979
C        -2.576283   -0.275750   -0.051161
C        -1.334934   -0.851790   -0.758575
H        -1.276359   -1.927767   -0.904811
H        -1.137141   -0.348656   -1.703818
C        -1.647904    0.666588    0.739373
H        -3.050835   -1.014152    0.594104
H        -1.536241    1.634034    0.254013
H        -1.847586    0.813722    1.798377
H        -0.257182   -0.992005    1.149819
H        -3.338152    0.182584   -0.677892
