27
0 1
C         0.771238    0.024361   -0.422656
O         0.062906    0.917403   -0.782686
S         0.126492   -1.640290   -0.108497
S        -1.797565   -1.412318   -0.698877
C        -2.501676   -0.479584    0.676231
O        -1.875314   -0.153484    1.635472
C         2.223396    0.182824   -0.153629
C         2.724210    1.478397   -0.084927
C         4.065825    1.689465    0.163072
C         4.916365    0.608898    0.338850
C         4.423137   -0.682926    0.266386
C         3.079083   -0.897507    0.022592
H         2.705839   -1.910266   -0.042610
H         2.043626    2.305760   -0.226979
H         4.451479    2.698317    0.220333
H         5.967968    0.774651    0.531875
H         5.086944   -1.526339    0.398241
C        -3.950999   -0.134074    0.444811
C        -4.158233    1.380734    0.439132
H        -4.512303   -0.590654    1.262620
H        -4.302892   -0.574942   -0.490075
C        -3.473770    2.070454   -0.731324
H        -3.783957    1.780825    1.382411
H        -5.231782    1.576669    0.414755
H        -2.394445    1.915090   -0.715067
H        -3.657392    3.144525   -0.707018
H        -3.848093    1.690492   -1.684013
