7
0 2
C         0.396928    0.216459   -0.000002
O         0.669495    1.385800   -0.000003
S        -1.314023   -0.216861    0.000002
C         1.396129   -0.898239    0.000000
H         2.399519   -0.477838   -0.000009
H         1.255272   -1.524063   -0.881697
H         1.255284   -1.524048    0.881710
