8
0 2
S         2.567097   -0.489815   -0.000006
C         1.027610    0.319728   -0.000007
O         0.005546   -0.591532   -0.000007
O         0.903289    1.499275    0.000006
C        -1.296075   -0.140088    0.000002
F        -2.063940   -1.215015    0.000003
F        -1.564339    0.579581   -1.077529
F        -1.564327    0.579573    1.077541
