8
0 2
S        -1.182314   -0.159095    0.000000
C         0.431792    0.618330    0.000000
C         1.613066   -0.333546    0.000000
H         0.452594    1.282762    0.868513
H         0.452594    1.282762   -0.868512
H         1.594637   -0.975000    0.880374
H         2.553420    0.221288    0.000000
H         1.594636   -0.975000   -0.880375
