8
0 1
C        -0.477848   -0.938305    0.000000
Si         0.359686    0.771178    0.000000
Cl        -2.241021   -0.766924    0.000000
F        -0.113304   -1.650634    1.083943
F        -0.113304   -1.650634   -1.083943
Cl         2.353399    0.570895    0.000000
F        -0.113304    1.548737    1.277221
F        -0.113304    1.548737   -1.277221
