10
0 2
C        -1.169264    1.164623   -0.183172
S        -0.065542   -0.147612    0.026803
O        -0.158172   -0.589781    1.391394
C         1.526120    0.591965   -0.190278
H         1.608353    0.986895   -1.199541
H         2.246921   -0.209618   -0.038592
H         1.672119    1.367635    0.557466
O        -0.282147   -1.081787   -1.039616
H        -2.148134    0.918370   -0.565407
H        -0.949164    2.131524    0.243702
