9
0 2
C         1.764359   -0.061999    0.000001
N         0.555175    0.432372   -0.000002
N        -0.379719   -0.480310    0.000000
C        -1.697967    0.095902    0.000001
H        -2.237381   -0.273914    0.876164
H        -2.237398   -0.273948   -0.876137
H        -1.677470    1.186465   -0.000019
H         2.595070    0.630110   -0.000007
H         1.930645   -1.136567    0.000001
