22
0 1
Si        -0.567110   -1.596024   -0.140010
C         0.921910   -1.116776    0.931821
C         1.651352    0.084562    0.409791
O         1.150666    1.201989    0.446019
N         2.866018   -0.139188   -0.130604
C        -1.957669   -0.290420   -0.198702
H        -1.146178   -2.830081    0.421790
H        -0.097307   -1.845474   -1.519983
O        -3.048236   -0.680270   -0.597042
N        -1.717862    0.974353    0.179498
C         3.667354    0.905521   -0.727198
H         3.229317   -1.074945   -0.109668
H         3.958666    0.633410   -1.741612
H         4.565267    1.100671   -0.139320
H         3.066106    1.809267   -0.758592
C        -2.748895    1.985185    0.097735
H        -0.762641    1.239022    0.400477
H        -3.640761    1.660633    0.632259
H        -3.035322    2.178402   -0.937578
H        -2.375684    2.903947    0.543435
H         1.574173   -1.986343    1.028962
H         0.543071   -0.872510    1.925217
