12
0 1
C        -0.675502    0.579976    1.036244
Si         0.545530    1.413023   -0.129868
C         1.983228    0.278317   -0.554072
H         1.112586    2.614910    0.523006
H        -0.123750    1.809183   -1.385644
S         2.225702   -1.178475    0.079213
H         2.711523    0.650742   -1.277447
C        -1.365460   -0.559883    0.395849
S        -2.767002   -0.493245   -0.391881
H        -0.829214   -1.505174    0.455410
H        -1.390362    1.352135    1.324770
H        -0.110987    0.252953    1.912614
