13
0 2
Si        -1.421268    0.000000   -0.135749
C         0.398532    0.000000    0.366402
C         1.122315   -1.262244   -0.097583
H         0.631157   -2.169502    0.256674
H         2.150593   -1.275859    0.270950
H         1.164592   -1.312374   -1.187590
C         1.122315    1.262244   -0.097582
H         2.150593    1.275859    0.270950
H         0.631157    2.169502    0.256674
H         1.164592    1.312374   -1.187590
H         0.381278    0.000000    1.463684
H        -2.117589    1.213212    0.364654
H        -2.117589   -1.213211    0.364656
