19
0 1
C        -0.118705    2.057415   -0.082101
C        -1.479564    2.258093   -0.277491
C        -2.352433    1.194568   -0.246217
C        -1.873642   -0.093804   -0.018512
C        -0.518427   -0.299452    0.181961
C         0.367994    0.779321    0.152273
H         0.556524    2.902773   -0.121972
H        -1.858359    3.254677   -0.462167
Si         2.176046    0.536971    0.480324
H        -0.137423   -1.296672    0.347469
Cl         2.845818   -1.165318   -0.475550
H        -3.414067    1.329540   -0.401688
O        -2.803933   -1.076798   -0.013642
C        -2.376184   -2.404125    0.200028
H        -1.677205   -2.726758   -0.575445
H        -3.269962   -3.020071    0.157709
H        -1.905238   -2.517714    1.179657
H         2.461041    0.337574    1.913827
H         2.938378    1.691750   -0.028082
