7
0 2
C        -1.492056   -0.399008    0.025519
O        -1.898835   -1.518502    0.049198
Si         0.319805   -0.020754    0.588524
O        -2.277333    0.635077   -0.313174
Cl         0.768678    1.876924   -0.095605
Cl         1.563827   -1.388988   -0.253283
H        -1.768160    1.457099   -0.349547
