14
0 1
C         2.924421   -0.721971    0.632709
C         1.570804   -0.833713    0.902983
N         3.420149    0.123918   -0.259418
C         2.564959    0.896572   -0.917527
C         1.196268    0.860081   -0.717815
C         0.672597   -0.027508    0.213947
H         3.641286   -1.340734    1.160741
H         1.233713   -1.544255    1.647526
H         2.994279    1.581686   -1.639807
H         0.554305    1.524045   -1.281347
Si        -1.144330   -0.192261    0.538693
Cl        -1.966210   -1.540568   -0.760253
Cl        -2.064290    1.613052    0.277815
H        -1.399785   -0.669507    1.902773
