9
0 1
Si         0.231443   -0.003191    0.000000
C        -1.650303    0.301715    0.000013
Cl         0.632411   -2.010506   -0.000071
Cl         1.031160    0.834400    1.658074
Cl         1.031147    0.834523   -1.658020
N        -2.482306   -0.759011    0.000004
H        -2.135121   -1.701529   -0.000015
H        -3.477258   -0.596055    0.000000
O        -2.020008    1.456495    0.000025
