7
0 2
Si         1.682698   -0.096068   -0.000008
O         0.129469   -0.807391   -0.000023
H         1.878544    0.687197   -1.235925
H         1.878565    0.687111    1.235959
N        -0.957270    0.053760    0.000003
O        -0.686757    1.228954    0.000012
O        -2.019461   -0.472272    0.000019
