14
0 1
C         2.045946    1.420727    0.000000
C         0.700158    1.095464    0.000002
C         2.976784    0.400624   -0.000004
C         2.524455   -0.910068   -0.000008
N         1.239995   -1.229942   -0.000006
C         0.335632   -0.242049   -0.000001
H         2.361815    2.455726    0.000003
H        -0.059749    1.864794    0.000005
Si        -1.406437   -0.916042    0.000000
Cl        -2.750497    0.652115    0.000006
H         4.037826    0.608717   -0.000005
H         3.227482   -1.735498   -0.000010
H        -1.648304   -1.716853    1.210851
H        -1.648309   -1.716848   -1.210853
