12
0 2
C         1.985703   -0.039773   -0.626484
C         1.235854   -0.076134    0.707786
H         1.770209    0.879222   -1.170535
H         1.697731   -0.875394   -1.264885
H         3.064397   -0.094145   -0.471896
Si        -0.625869   -0.001021    0.495920
H         1.533597    0.761679    1.342605
H         1.479721   -0.983854    1.265281
O        -1.194719   -1.210135   -0.483089
H        -1.442345   -2.043054   -0.077568
O        -0.918984    1.405648   -0.304242
H        -1.760861    1.501181   -0.755045
