18
0 1
Si         0.187778   -0.804236    0.000003
C        -0.495587    0.957762   -0.000001
N        -1.955020    0.998794    0.000002
N        -2.442543   -0.126094    0.000009
N         1.981136   -0.743861   -0.000007
H        -0.142583   -1.567199   -1.217062
H        -0.142570   -1.567191    1.217077
N         2.485168    0.379377   -0.000001
C        -3.893406   -0.154136   -0.000001
H        -4.221291   -0.709362    0.879233
H        -4.221280   -0.709378   -0.879228
H        -4.313293    0.852207   -0.000013
C         3.943103    0.381631   -0.000004
H         4.277314    0.934992    0.878932
H         4.277310    0.935005   -0.878934
H         4.344063   -0.633173   -0.000013
H        -0.146202    1.527172   -0.864125
H        -0.146198    1.527177    0.864118
