14
0 1
Si        -0.922187    0.916486    0.135896
C         0.841860    0.699173   -0.407588
C         1.637227   -0.335811    0.387501
Cl        -1.945733   -0.864575   -0.085216
C         3.076176   -0.464396   -0.088434
H         3.605974    0.485681    0.002322
H         3.114594   -0.765253   -1.136918
H         3.622132   -1.208440    0.492557
H         1.323466    1.681054   -0.334010
H         0.844552    0.441440   -1.470846
H         1.141780   -1.306499    0.316146
H         1.627330   -0.068418    1.447666
H        -1.619340    1.927202   -0.682697
H        -1.003985    1.286414    1.563026
