12
0 2
C        -0.000010    1.632836    0.291095
P         0.000000    0.081102   -0.503506
C        -1.431686   -0.796231    0.236049
H        -2.347239   -0.259802   -0.011203
H        -1.346805   -0.872544    1.320041
H        -1.504580   -1.795779   -0.191722
C         1.431695   -0.796217    0.236050
H         2.347243   -0.259776   -0.011199
H         1.504601   -1.795762   -0.191723
H         1.346813   -0.872532    1.320042
H        -0.919266    2.198657    0.369598
H         0.919237    2.198675    0.369585
