15
0 2
C        -2.844470   -0.020639    0.000000
C        -1.448745   -0.008527    0.000000
C        -0.695578   -1.206112    0.000000
C        -0.714989    1.204377    0.000000
C         0.655645    1.219046    0.000000
C         1.364773    0.019761    0.000000
C         0.678649   -1.191211    0.000000
H        -1.258823    2.140320    0.000000
H         1.207478    2.149063    0.000000
O         2.721466    0.091457    0.000000
H        -1.219810   -2.153052    0.000000
H         1.232409   -2.123401    0.000000
H         3.097628   -0.794019    0.000000
H        -3.408967    0.900451    0.000000
H        -3.393350   -0.951187    0.000000
