7
0 2
C         0.000000    2.022339    0.249783
Si         0.000000    0.321139   -0.505011
H        -0.887639    2.572316   -0.060668
H         0.887639    2.572316   -0.060669
H         0.000001    1.935233    1.337700
Cl         1.674370   -0.697348    0.128091
Cl        -1.674370   -0.697349    0.128091
