12
0 1
Si         1.944760   -0.131042   -0.235356
C         0.342425   -0.070016    0.753654
H         1.700046   -0.739183   -1.559022
H         2.961370   -0.910626    0.503503
H         2.443142    1.250865   -0.431856
N        -0.661214    0.773360    0.128056
C        -1.871297    0.308898   -0.253774
O        -2.252955   -0.829262   -0.118327
H        -2.493741    1.092175   -0.718247
H        -0.455902    1.742631   -0.043545
H         0.530495    0.255904    1.780099
H        -0.086673   -1.069895    0.814999
