14
0 1
Si        -2.969865    0.185330   -0.038763
C        -1.281387   -0.628125    0.155517
P         1.239171    0.018086    0.088723
O         1.567222   -1.031688   -1.053433
O         1.951236    1.340293   -0.404842
H         2.243324    1.889663    0.330923
O         1.589673   -0.412129    1.437926
O        -0.273790    0.346557   -0.187344
H        -3.072554    1.341966    0.873117
H        -3.998228   -0.820133    0.307871
H        -3.154860    0.628206   -1.434967
H         2.291514   -1.619800   -0.812704
H        -1.182609   -1.492726   -0.504784
H        -1.122449   -0.968602    1.180823
