12
0 1
C        -1.055460   -0.486452   -0.443745
Si         0.713440   -0.566951    0.170429
N         1.439070    0.936298   -0.211381
H         1.477348   -1.655906   -0.481865
H         0.659354   -0.885312    1.626641
N        -1.729470    0.634646    0.222514
H        -1.832100    0.459718    1.213714
H        -2.654983    0.792487   -0.153044
H         0.887068    1.768949   -0.076226
H         2.422027    1.109388   -0.089440
H        -1.563870   -1.452682   -0.326313
H        -1.017445   -0.277226   -1.514933
