12
0 1
C         0.655633    0.395134    1.506998
Si        -0.472085    1.494570    0.484118
S        -1.476003    0.390504   -1.053356
H         0.278078    2.541457   -0.236476
H        -1.450350    2.115731    1.400268
S        -2.343331   -1.081423    0.120720
H        -1.297713   -1.924745    0.131478
S         1.510613   -0.946644    0.641209
S         2.450422   -0.037535   -0.932415
H         1.457046   -0.115425   -1.835104
H         0.044562   -0.119250    2.252177
H         1.376550    1.009009    2.049499
