8
0 1
C         1.092914    0.000000   -0.395736
Si        -0.767935    0.000000    0.049969
Cl        -0.964090    0.000000    2.057315
Cl        -1.599626   -1.654884   -0.753799
Cl         1.880467    1.452686    0.236310
Cl         1.880467   -1.452687    0.236310
Cl        -1.599626    1.654884   -0.753799
F         1.226060    0.000000   -1.744984
