12
0 1
C         0.046483    0.604070   -0.000004
Si        -1.696796   -0.107033   -0.000002
H        -2.659366    1.018818   -0.000015
H        -1.913623   -0.931505    1.206919
H        -1.913616   -0.931526   -1.206910
O         0.967585   -0.465062    0.000004
C         2.306152   -0.040189    0.000005
H         2.933810   -0.929117    0.000011
H         2.531683    0.559280    0.889943
H         2.531687    0.559270   -0.889939
H         0.194035    1.245229    0.880920
H         0.194038    1.245218   -0.880936
