14
0 2
Si         1.945485    0.336173   -0.060060
C         0.236129   -0.527681   -0.018706
H         2.131096    1.293975    1.058393
H         2.969030   -0.725460   -0.030135
O         0.267929   -1.748013    0.006725
N        -0.920401    0.180211   -0.025901
C        -0.970377    1.619294   -0.047396
H         0.019892    2.035730   -0.221143
H        -1.352327    2.018966    0.895973
H        -1.621455    1.962925   -0.854279
C        -2.189678   -0.509630    0.050908
H        -2.003094   -1.578740    0.052148
H        -2.814913   -0.249265   -0.805994
H        -2.722086   -0.233812    0.964549
