10
0 1
Si         1.816211   -0.446023    0.011906
C         0.580795    0.971737   -0.184535
H         3.121610   -0.018828   -0.537439
H         1.318774   -1.623055   -0.730397
H         1.958188   -0.784573    1.441866
N        -0.716817    0.619829    0.327711
C        -1.694526   -0.001623    0.052274
O        -2.697011   -0.574897   -0.121431
H         0.509746    1.268184   -1.233668
H         0.940918    1.842281    0.363997
