8
0 2
Si         1.380424   -0.091452   -0.089721
C        -0.514685    0.145149    0.000882
N        -1.302982   -0.959772   -0.001328
H        -0.921064   -1.885559    0.062950
H        -2.302640   -0.837902    0.045022
O        -0.970858    1.270730    0.015006
H         1.824613   -1.380043    0.499018
H         2.048999    1.065496    0.533058
