8
0 1
C         1.047346    0.000000    1.235709
Si        -0.384195    0.000000    0.048711
Cl        -2.089788   -0.000002    1.161377
Cl        -0.346067   -1.656803   -1.118479
Cl         2.610356    0.000000    0.379389
Cl        -0.346068    1.656804   -1.118477
H         1.005650   -0.883557    1.869507
H         1.005650    0.883559    1.869506
