7
0 2
C         0.000006    0.000007    0.294315
O        -1.208334   -0.491953   -0.098446
H        -1.276878   -1.405598    0.199242
O         1.030207   -0.800476   -0.098468
H         1.855732   -0.402977    0.199133
O         0.178124    1.292421   -0.098509
H        -0.578867    1.808603    0.199122
