14
0 1
Si         0.222019   -0.783127   -0.005827
C        -0.510179    0.958743   -0.064518
O        -1.891570    1.007476   -0.492145
N        -2.672514    0.013759    0.035973
O        -2.103162   -0.855358    0.667810
O        -3.829003    0.114023   -0.195356
O         1.828399   -0.654648   -0.651789
H        -0.311627   -1.665650   -1.048181
H         0.378151   -1.365385    1.326381
N         2.689623    0.139195    0.037044
O         2.199754    0.783590    0.942549
O         3.820923    0.123292   -0.323676
H        -0.004718    1.574961   -0.804912
H        -0.431488    1.449719    0.905134
