8
0 1
C         1.830772    0.476590    0.000000
Si         0.000000    0.764846    0.000000
H        -0.432399    1.497428    1.205343
Cl        -0.985450   -1.048519    0.000000
H        -0.432399    1.497428   -1.205343
H         2.135773   -0.084075    0.883512
H         2.361279    1.430735    0.000000
H         2.135773   -0.084075   -0.883512
