15
0 1
C        -0.457264    1.543984    0.072906
C        -1.781437    1.720843   -0.290722
C        -2.639757    0.636849   -0.352556
C        -2.143117   -0.611322   -0.044368
C        -0.830982   -0.813204    0.319603
C         0.034258    0.276909    0.379765
H         0.198401    2.404295    0.117942
H        -2.151620    2.709363   -0.526747
Si         1.814448    0.039737    0.842767
F        -2.971004   -1.667412   -0.098369
H        -3.678549    0.744806   -0.631329
H        -0.502182   -1.818100    0.551434
Cl         2.945319   -0.369395   -0.831109
H         1.958567   -1.108871    1.754661
H         2.351533    1.274241    1.441694
