8
0 1
C         1.064707   -0.000009   -0.000001
Si        -0.840900   -0.000003    0.000001
F        -1.354401   -1.215859    0.838663
F         1.553798    0.099990    1.245692
F        -1.354376   -0.118367   -1.472299
F         1.553783    1.028805   -0.709441
F        -1.354351    1.334243    0.633635
F         1.553809   -1.128801   -0.536251
