15
0 1
C        -1.622673    1.199619   -0.027243
C        -3.005559    1.199348    0.000145
C        -3.697503    0.000000    0.014340
C        -3.005558   -1.199349    0.000145
C        -1.622672   -1.199617   -0.027243
C        -0.914107    0.000001   -0.040503
H        -1.092701    2.142974   -0.045279
H        -3.544174    2.137410    0.007109
Si         0.926865    0.000000   -0.007215
H        -1.092699   -2.142973   -0.045279
Cl         1.665678   -1.657082   -0.935912
Cl         1.626606   -0.000022    1.908619
Cl         1.665679    1.657103   -0.935875
H        -3.544171   -2.137410    0.007109
H        -4.779331   -0.000001    0.033352
