14
0 2
C        -1.157904    1.414569   -0.004227
C         0.056007    2.075720    0.007770
C         1.242973    1.362972    0.009434
C         1.193784   -0.019657   -0.000635
C        -0.011544   -0.692806   -0.012317
C        -1.212221    0.019093   -0.008544
H        -2.074784    1.990591   -0.002926
H         0.084359    3.157143    0.017710
Si        -2.835715   -0.871827   -0.078864
Cl         2.675640   -0.923827    0.004454
H         2.197737    1.868645    0.019254
H        -0.008456   -1.774785   -0.017101
H        -3.914934   -0.069025    0.540291
H        -2.736351   -2.221266    0.522267
