10
0 1
Si         2.291390   -0.566759    0.005006
C         1.249993    1.015237   -0.096617
H         3.697703   -0.206261   -0.273953
H         1.800807   -1.530235   -0.999410
H         2.170489   -1.140257    1.359217
N        -0.121995    0.757263    0.155666
C        -1.185427    0.271390    0.053234
S        -2.641136   -0.338883   -0.033041
H         1.358858    1.469360   -1.084892
H         1.617426    1.743549    0.628244
