10
0 2
C        -0.901062    1.762566   -0.288422
C        -0.561547    0.520245    0.017542
S        -1.443717   -0.958595   -0.045052
S         1.017303    0.068913    0.700312
C         1.901904   -0.413565   -0.797124
H         2.852733   -0.835949   -0.478723
H         2.078254    0.454292   -1.427712
H         1.335460   -1.166120   -1.338936
H        -0.190050    2.568061   -0.171991
H        -1.889538    1.999156   -0.658772
