20
0 1
Si        -0.675540    1.657332   -0.011938
C         1.128210    1.478599   -0.493178
C        -1.456813   -0.080952   -0.201627
O        -0.885365   -1.015471   -0.701100
H        -1.361069    2.570542   -0.950870
H        -0.853138    2.139652    1.367409
O        -2.710466   -0.153975    0.263661
C        -3.355027   -1.427230    0.148088
H        -4.344848   -1.296781    0.573379
H        -2.797295   -2.183217    0.697494
H        -3.421483   -1.724838   -0.896745
C         1.736498    0.305802    0.213813
O         1.579432    0.073875    1.384679
O         2.468725   -0.457570   -0.596111
C         2.999808   -1.646807   -0.010284
H         2.189354   -2.277092    0.350566
H         3.660648   -1.402353    0.819204
H         3.548114   -2.145762   -0.803118
H         1.654816    2.379540   -0.169689
H         1.247785    1.386305   -1.570410
