13
0 2
C        -0.251705    0.945574   -0.014613
O        -0.685264    2.041164   -0.259675
Si         1.608414    0.695255    0.328127
O        -0.997082   -0.150876    0.104980
Cl         2.231597   -1.193407   -0.164440
C        -2.417675    0.007398   -0.089420
C        -3.052370   -1.344269    0.094707
H        -2.586041    0.409936   -1.088026
H        -2.784462    0.738866    0.630551
H        -2.660171   -2.058567   -0.628306
H        -4.130498   -1.267308   -0.047017
H        -2.863704   -1.728878    1.096391
H         2.359202    1.685778   -0.468368
