24
0 1
C         0.877817   -1.168199   -0.271375
Si        -0.738071   -0.884962   -1.193212
P        -2.415793    0.092630   -0.061683
H        -1.224267   -2.214660   -1.633587
H        -0.496045   -0.066814   -2.406104
P         1.673844    0.296809    0.507605
C        -2.133455   -0.601941    1.629086
H        -1.130155   -0.405361    2.006748
H        -2.308590   -1.677828    1.618340
H        -2.855455   -0.160058    2.315975
C        -1.767183    1.809943    0.160979
H        -1.675628    2.291262   -0.812582
H        -0.805949    1.845926    0.671962
H        -2.493031    2.380607    0.740974
C         2.134408    1.265296   -0.983903
H         1.248262    1.713110   -1.431853
H         2.635551    0.654175   -1.737289
H         2.801395    2.075817   -0.689908
C         3.315858   -0.415933    0.921481
H         3.202792   -1.155205    1.714371
H         3.973617    0.370472    1.292513
H         3.786897   -0.893539    0.059951
H         1.571912   -1.662508   -0.959920
H         0.666260   -1.882511    0.528937
