14
0 1
Si         2.478708   -0.353903   -0.451977
C         1.183377   -0.229799    0.922166
C        -0.139986    0.210734    0.389526
S        -0.472985    1.757083    0.003139
S        -1.222962   -1.125112    0.197109
H         3.703756   -0.952543    0.122257
H         2.783005    0.984798   -0.988833
H         1.966420   -1.225071   -1.529762
C        -2.673412   -0.393955   -0.551713
H        -3.382372   -1.207250   -0.694273
H        -2.421029    0.057800   -1.507671
H        -3.096619    0.364248    0.101968
H         1.544381    0.501472    1.645005
H         1.115824   -1.202235    1.415149
