8
0 1
C         1.236335    0.000000    0.000001
Si        -0.631143    0.000000    0.000000
H        -1.153141    0.110347    1.381260
H        -1.153130   -1.251384   -0.595070
H        -1.153128    1.141040   -0.786194
H         1.625796   -0.838627    0.577832
H         1.625799    0.919729    0.437358
H         1.625800   -0.081102   -1.015185
