8
0 1
C        -1.042515   -0.533711   -0.244628
Si         0.667380    0.119546    0.305411
F         0.623131    0.269481    1.870673
Cl         1.015364    1.906720   -0.543769
F        -1.269380   -1.753259    0.281414
Cl        -2.338308    0.555581    0.276272
Cl         2.065557   -1.235645   -0.198425
F        -1.099602   -0.663392   -1.584013
