17
0 1
Si        -0.800190    0.410553    0.403710
C         0.930486    0.695808   -0.217841
C         1.980032   -0.282620    0.307119
H         1.207009    1.720944    0.055273
H         0.909871    0.671860   -1.312068
C        -2.010845    1.639395   -0.281161
H        -1.739970    2.651350    0.026346
H        -3.019630    1.434531    0.076752
H        -2.024214    1.606225   -1.371034
Cl        -1.403217   -1.489723   -0.169791
C         3.376329    0.008971   -0.221200
H         1.692812   -1.300712    0.035771
H         1.991686   -0.253549    1.400056
H         3.400593   -0.048197   -1.311001
H         4.105801   -0.703054    0.166549
H         3.702745    1.010917    0.064034
H        -0.825357    0.417910    1.882326
