12
0 1
Si         0.469888   -0.601537    0.069291
C        -0.818483    0.749374    0.158436
C        -2.160881    0.157945    0.445050
Cl         2.347114    0.234590   -0.116293
C        -3.101626   -0.069716   -0.456766
H        -4.042632   -0.528336   -0.186085
H        -2.967316    0.200938   -1.497506
H        -0.818990    1.285689   -0.792356
H        -0.524577    1.457607    0.935996
H        -2.343052   -0.132918    1.475270
H         0.240221   -1.458410   -1.107506
H         0.462925   -1.416702    1.298778
