14
0 2
Si         0.859005    0.147781    0.542584
C        -0.782534   -0.685550   -0.086988
Cl         2.379304   -1.169796    0.210703
Cl         1.166004    1.827053   -0.617680
N        -1.965838   -0.080981    0.153690
C        -2.098239    1.180383    0.840403
O        -0.659165   -1.735079   -0.683252
H        -1.172409    1.444179    1.348964
H        -2.881381    1.108187    1.596902
H        -2.352239    1.986946    0.148703
C        -3.182804   -0.651752   -0.387709
H        -3.903992   -0.825517    0.412937
H        -2.941307   -1.593140   -0.870385
H        -3.629330    0.026056   -1.118738
