21
0 1
Si        -1.568763   -1.140452   -0.077502
C         0.299329   -0.885357   -0.249420
Cl        -2.782268    0.483456    0.373049
N         1.083889    0.185326   -0.073603
C         0.591548    1.471628    0.393078
O         0.723162   -1.985853   -0.602048
C         2.512258    0.052439   -0.338061
C         0.305056    2.446159   -0.735414
H         1.341428    1.883499    1.070833
H        -0.305816    1.312558    0.984904
H         1.188032    2.609371   -1.353905
H        -0.008887    3.409661   -0.333197
H        -0.494097    2.069353   -1.373204
C         3.286900   -0.410745    0.883620
H         2.875174    1.021172   -0.682978
H         2.634146   -0.661423   -1.149926
H         3.160573    0.278984    1.719326
H         4.351533   -0.472612    0.656538
H         2.944933   -1.397004    1.193413
H        -1.751942   -2.119540    1.001465
H        -2.016911   -1.641643   -1.381283
