14
0 2
C         0.898542    1.534763    0.000006
N         0.608326    0.195839   -0.000005
C        -0.672292   -0.322404    0.000000
O        -0.868729   -1.521328    0.000007
C        -1.805459    0.666904   -0.000005
H        -1.770540    1.308288   -0.881341
H        -1.770557    1.308273    0.881342
H        -2.733415    0.104655   -0.000018
C         1.728995   -0.732025   -0.000004
H         2.341378   -0.573876   -0.887886
H         1.339392   -1.743162   -0.000080
H         2.341296   -0.573984    0.887955
H         1.934561    1.823294   -0.000003
H         0.110727    2.262829    0.000023
