11
0 1
Si         2.049336   -0.294048   -0.268568
C         0.627022    0.140566    0.901092
C        -0.602688    0.555961    0.157542
O        -0.780364    1.654436   -0.284550
H         3.216748   -0.671024    0.555347
H         2.380879    0.874205   -1.105497
S        -1.787919   -0.768622   -0.056391
H         1.660934   -1.433018   -1.124345
H        -2.626029   -0.035840   -0.800841
H         0.948402    0.982166    1.515755
H         0.431978   -0.716503    1.546384
