12
0 2
Si         2.412782   -0.494515   -0.272067
C         0.788144    0.342826    0.241814
H         3.547702    0.190311    0.372354
H         2.387947   -1.952872   -0.046760
O         0.692236    1.457917    0.645537
O        -0.301074   -0.501912    0.095101
C        -1.567188   -0.000829   -0.182517
O        -1.739096    0.996679   -0.798788
C        -2.612971   -0.922458    0.351898
H        -2.575448   -0.909729    1.441617
H        -2.412023   -1.943029    0.029211
H        -3.591560   -0.600173    0.010543
