19
0 2
Si        -3.060195   -0.115989    0.000000
C        -1.372039    0.705849   -0.000001
C        -0.203857   -0.284357    0.000000
H        -1.303938    1.359884    0.873508
H        -1.303938    1.359882   -0.873511
C         1.156357    0.399835   -0.000001
H        -0.276004   -0.938721   -0.873632
H        -0.276004   -0.938719    0.873634
C         2.322358   -0.576994    0.000001
H         1.230256    1.053967    0.874845
H         1.230256    1.053965   -0.874847
C         3.676479    0.114775    0.000000
H         2.244013   -1.229998   -0.874065
H         2.244013   -1.229996    0.874068
H         3.792840    0.749489   -0.880546
H         4.494491   -0.606178    0.000001
H         3.792840    0.749491    0.880544
H        -3.250945   -0.956928    1.209375
H        -3.250944   -0.956934   -1.209371
