10
0 2
C         1.195137    1.502426   -0.000001
C         0.324680    0.419817    0.000015
S         0.876580   -1.154019   -0.000005
O        -0.973987    0.764744    0.000006
C        -1.960700   -0.254548   -0.000003
H        -2.914475    0.265242   -0.000010
H        -1.869477   -0.883132    0.885699
H        -1.869464   -0.883131   -0.885704
H         2.257966    1.329125   -0.000017
H         0.807369    2.512068   -0.000002
