9
0 1
Si         1.447323   -0.214893    0.000610
C        -0.151178    0.799574   -0.156448
N        -1.235194    0.091339    0.507254
O        -1.986106   -0.471140   -0.235890
H         2.521313    0.568022   -0.642994
H         1.271958   -1.506611   -0.689991
H         1.765350   -0.434256    1.424011
H        -0.385609    0.978878   -1.208398
H         0.006737    1.734776    0.383861
