14
0 1
C         1.035922   -0.851263    0.703951
Si        -0.610992   -1.192898   -0.182891
C         1.772685    0.287110    0.074143
O         1.292846    1.385680   -0.054258
O         3.005641    0.063562   -0.386910
C        -1.835874    0.274144   -0.029362
H        -1.231990   -2.366755    0.450029
H        -0.335180   -1.445102   -1.611136
O        -3.004535    0.007573   -0.114468
O        -1.417033    1.522876    0.157006
H         3.290699   -0.838557   -0.204444
H        -0.435427    1.579848    0.140173
H         1.626493   -1.766457    0.755950
H         0.787545   -0.559881    1.726551
