16
0 1
C        -0.432507    1.313428    0.743116
Si         0.698104    1.063256   -0.737600
C         1.305551   -0.712717   -0.890629
H         1.863573    1.960148   -0.583224
H         0.007265    1.402877   -1.997942
N         2.006182   -1.332016   -0.038561
O         2.278033   -0.535291    1.075001
H         2.825239   -1.099463    1.629877
H         1.068778   -1.316813   -1.761131
C        -1.652916    0.460633    0.734978
N        -1.845592   -0.349705   -0.212175
H        -2.379925    0.529723    1.544335
O        -3.025786   -1.065271   -0.060924
H        -3.040745   -1.640829   -0.831578
H        -0.723916    2.367288    0.792351
H         0.143408    1.119968    1.651463
