14
0 2
C        -1.304227    1.246797   -0.082183
C        -2.627059    0.857652   -0.185805
C        -2.961740   -0.483945   -0.098906
C        -1.970305   -1.433011    0.091313
C        -0.647541   -1.043498    0.196397
C        -0.293134    0.302160    0.104108
H        -1.055980    2.299285   -0.157906
H        -3.398352    1.600945   -0.338219
Si         1.450473    0.890670    0.305465
H         0.119605   -1.793666    0.339444
Cl         2.786504   -0.591743   -0.217656
H        -2.229667   -2.481448    0.156194
H        -3.996164   -0.790252   -0.181262
H         1.707393    2.078453   -0.544156
