20
0 1
C         0.986667    1.090248   -1.322193
Si        -0.503364    1.823040   -0.414799
C        -1.554736    0.368811    0.188465
H        -1.274398    2.641681   -1.374283
H        -0.085723    2.622452    0.746102
S        -1.611066   -0.090570    1.745274
O        -2.145541   -0.245841   -0.826189
C        -2.861859   -1.459451   -0.591062
H        -3.229957   -1.770090   -1.563487
H        -3.683510   -1.284156    0.101330
H        -2.191486   -2.207063   -0.170564
C         1.632016    0.009239   -0.531163
S         1.439976   -1.584585   -0.812042
O         2.339302    0.529063    0.461927
C         2.964206   -0.337857    1.405474
H         3.463841    0.318590    2.111097
H         3.678231   -0.989382    0.905130
H         2.213587   -0.947342    1.905185
H         1.695405    1.904519   -1.489498
H         0.650687    0.699004   -2.278568
