17
0 2
C        -0.602548    1.416338   -0.003102
C         0.706311    1.864268    0.008466
C         1.751705    0.958794    0.008569
C         1.508701   -0.411400   -0.001864
C         0.192922   -0.844307   -0.014471
C        -0.881517    0.049699   -0.008623
H        -1.411911    2.136155   -0.001198
H         0.913609    2.926442    0.018341
Si        -2.625063   -0.565160   -0.078858
C         2.648865   -1.387802    0.008969
H         2.773816    1.318115    0.017153
H        -0.001275   -1.911255   -0.021917
H         3.338814   -1.196056   -0.813954
H         2.292496   -2.412651   -0.082006
H         3.220138   -1.312952    0.935899
H        -3.567724    0.400502    0.533059
H        -2.753717   -1.909601    0.530967
