11
0 1
Si        -2.013653   -0.306854   -0.258365
C        -0.578235    0.092197    0.911405
C         0.691962    0.348516    0.173825
S         1.829139   -0.765751   -0.116470
O         0.829603    1.594129   -0.301661
H        -2.222604    0.836232   -1.174463
H        -3.232209   -0.505572    0.553425
H         0.074554    2.144828   -0.059011
H        -1.706888   -1.522300   -1.032296
H        -0.448765   -0.759979    1.574244
H        -0.858357    0.957445    1.520645
