13
0 2
C         2.010936    1.417215   -0.034544
C         0.672107    1.078371   -0.108666
C         2.949026    0.408058    0.071413
C         2.508086   -0.906518    0.096432
N         1.230199   -1.242046    0.025039
C         0.318368   -0.264891   -0.067836
H         2.317193    2.454869   -0.057301
H        -0.092276    1.839280   -0.186356
Si        -1.419980   -0.929168   -0.197947
Cl        -2.780671    0.594245    0.116995
H         4.005888    0.627769    0.132192
H         3.216833   -1.723238    0.175918
H        -1.659044   -1.991590    0.801824
