7
0 2
Si         1.360924   -0.116351   -0.000002
O        -0.022318    0.853385   -0.000002
H         1.393613   -0.936310    1.230667
H         1.393594   -0.936338   -1.230652
C        -1.259550    0.347175   -0.000002
O        -1.511571   -0.819219    0.000006
H        -2.011739    1.145192   -0.000008
