14
0 2
C        -0.477765    1.410131   -0.004808
C         0.852839    1.787539    0.007098
C         1.854242    0.830631    0.010089
C         1.486051   -0.497997    0.001308
C         0.170955   -0.901057   -0.010416
C        -0.841057    0.061004   -0.007757
H        -1.244176    2.174771   -0.004343
H         1.117452    2.836423    0.016015
Si        -2.622864   -0.441931   -0.079432
F         2.450145   -1.434440    0.006871
H         2.901725    1.096652    0.020105
H        -0.049740   -1.960668   -0.013671
H        -3.495882    0.585244    0.532950
H        -2.832193   -1.776930    0.526066
