17
0 2
C         1.922227   -1.195727   -0.171753
C         0.612908   -1.194517    0.274727
C         2.583118    0.000002   -0.397971
C         1.922225    1.195729   -0.171749
C         0.612905    1.194516    0.274730
C        -0.061102   -0.000002    0.508612
H         0.103889   -2.134761    0.448389
H         2.429564   -2.136235   -0.342248
H         3.607195    0.000004   -0.746141
H         2.429560    2.136239   -0.342243
H         0.103884    2.134758    0.448395
C        -1.492601   -0.000004    0.960161
Si        -2.645042    0.000001   -0.538391
H        -1.708374    0.878137    1.569377
H        -1.708374   -0.878150    1.569371
H        -2.412416   -1.210997   -1.363991
H        -2.412420    1.211007   -1.363981
