12
0 2
C         2.269490   -0.793747   -0.428347
C         1.238670    0.000083    0.163454
O         1.395411    1.065123    0.694112
O         0.000652   -0.633322    0.132313
C        -1.129386    0.095212   -0.164632
O        -1.096078    1.121639   -0.761238
C        -2.347440   -0.615884    0.327241
H        -2.334383   -1.654717    0.000972
H        -3.235556   -0.112119   -0.040546
H        -2.344081   -0.613775    1.417587
H         3.280148   -0.418386   -0.395458
H         2.045989   -1.742514   -0.890350
