8
0 1
Si        -0.560477    0.439898   -0.000001
C         1.231316   -0.225741   -0.000001
Cl        -1.875583   -1.068962    0.000007
F        -0.740039    1.334084   -1.276097
F        -0.740035    1.334093    1.276089
F         1.476273   -0.980902    1.082082
F         2.121276    0.778999   -0.000009
F         1.476268   -0.980916   -1.082075
