14
0 1
C        -0.771147    0.842195   -0.000005
O        -0.891912    2.034770   -0.000009
Si         0.908991   -0.064706    0.000000
O        -1.781867   -0.024639   -0.000002
Cl         1.043119   -1.224567   -1.658793
Cl         1.043122   -1.224538    1.658813
Cl         2.379957    1.317473   -0.000013
C        -3.115585    0.528139   -0.000004
C        -4.082728   -0.623952    0.000002
H        -3.223517    1.160396   -0.880925
H        -3.223516    1.160403    0.880913
H        -3.946162   -1.245559   -0.884131
H        -5.104916   -0.245401    0.000001
H        -3.946161   -1.245552    0.884140
