13
0 1
Si         1.976262   -0.391011   -0.015501
C         0.615613    0.919205   -0.037801
H         2.168358   -0.911944    1.353263
H         3.231647    0.236825   -0.482495
H         1.613106   -1.502217   -0.919111
N        -0.626574    0.347216    0.444530
N        -1.462622    0.159256   -0.431938
C        -2.690063   -0.444575    0.057060
H        -3.518788    0.216071   -0.200175
H        -2.656648   -0.619624    1.133410
H        -2.842857   -1.381997   -0.479293
H         0.501129    1.330598   -1.044706
H         0.907452    1.713362    0.652416
