9
0 2
Si        -1.705696   -0.074028   -0.066217
N         0.022946    0.300974    0.079289
H        -2.051074   -0.659643    1.254698
H        -2.354288    1.256041   -0.180384
N         0.953536   -0.417304   -0.250336
C         2.271741    0.105937    0.092765
H         2.851943    0.170895   -0.828366
H         2.759483   -0.628388    0.734872
H         2.207859    1.076179    0.586954
