20
0 1
Si         0.437230    2.129819   -0.356885
C        -1.010397    1.803050    0.816053
P        -1.852625   -0.505097   -0.077763
O        -1.398659   -1.266787    1.191503
O        -3.312716   -1.013763   -0.346115
H        -0.395182   -1.256610    1.314174
H        -3.475529   -1.206996   -1.275527
O        -0.946338   -0.621237   -1.243135
P         1.874241   -0.517135    0.067109
O         1.559383   -1.284579   -1.246408
H         0.586346   -1.194019   -1.447072
O         3.434580   -0.627818    0.214542
H         3.695945   -1.104688    1.009631
O         1.150331   -0.976157    1.272938
O        -2.097203    0.999171    0.324914
O         1.644155    1.000693   -0.230440
H         1.052727    3.388020    0.104165
H        -0.007758    2.228771   -1.753526
H        -1.455719    2.773183    1.040543
H        -0.652183    1.393866    1.765099
