8
0 2
Si         1.391157   -0.258282   -0.082916
C        -0.045975    0.907647    0.032019
H         2.632586    0.462920    0.270873
H         1.243462   -1.517766    0.667319
N        -1.283084    0.604715    0.032767
O        -1.473871   -0.765160   -0.028891
H        -2.430929   -0.866770   -0.011874
H         0.127080    1.979964    0.044147
