30
0 1
Si        -0.677241    2.483490   -0.310998
C         0.883849    2.352203    0.747759
C         1.662401    1.121533    0.393581
C         1.471088   -0.056289    1.104588
C         2.507319    1.104306   -0.710757
C         3.131895   -0.071001   -1.093164
C         2.925692   -1.246657   -0.395318
C         2.089107   -1.231681    0.710227
H         2.667285    2.011915   -1.278015
H         3.789036   -0.072684   -1.952971
C        -1.652744    0.898131   -0.212774
H        -0.262016    2.745391   -1.708100
H        -1.517691    3.604186    0.171123
C        -1.145016   -0.267194   -0.784267
C        -2.847432    0.825507    0.497300
C        -3.510420   -0.385499    0.632132
C        -2.989555   -1.539109    0.079776
C        -1.796125   -1.478016   -0.625588
H        -3.267134    1.715961    0.947547
H        -4.442384   -0.432401    1.180299
O         1.894968   -2.405688    1.367784
O        -1.303162   -2.637717   -1.134927
H         3.404478   -2.171832   -0.684033
H        -3.488190   -2.492790    0.186033
H         0.801010   -0.065161    1.957176
H        -0.215750   -0.244173   -1.343537
H         1.256373   -2.282931    2.077017
H        -0.430361   -2.483519   -1.511451
H         0.590322    2.336975    1.798486
H         1.481589    3.252030    0.590568
