22
0 2
Si         3.665909   -0.246762    0.000001
C         2.039305    0.690961   -0.000001
C         0.804885   -0.215302    0.000000
H         2.016994    1.348141   -0.873523
H         2.016994    1.348143    0.873520
C        -0.504317    0.562325   -0.000001
H         0.831134   -0.873106    0.873602
H         0.831134   -0.873107   -0.873600
C        -1.734553   -0.331168    0.000000
H        -0.531533    1.219807   -0.874838
H        -0.531533    1.219809    0.874836
C        -3.044430    0.442439   -0.000001
H        -1.704457   -0.989411    0.874563
H        -1.704456   -0.989413   -0.874561
C        -4.268122   -0.460049    0.000000
H        -3.073301    1.099593   -0.874030
H        -3.073301    1.099595    0.874028
H        -4.279659   -1.105356   -0.880493
H        -5.192642    0.118097    0.000000
H        -4.279659   -1.105354    0.880495
H         3.797477   -1.099005   -1.209355
H         3.797479   -1.098998    1.209361
