14
0 1
Si         2.432702   -0.188673   -0.451816
C         1.132401   -0.044501    0.911367
C        -0.177817    0.446543    0.378074
O        -0.390126    1.592962    0.083774
S        -1.391135   -0.828357    0.173257
H         1.956992   -1.119886   -1.495403
H         3.675753   -0.718464    0.148133
H         2.692627    1.136255   -1.045722
C        -2.715442    0.136736   -0.562718
H        -3.545064   -0.545503   -0.732877
H        -2.390500    0.567959   -1.505413
H        -3.020621    0.931772    0.111516
H         1.493216    0.680136    1.642746
H         1.024089   -1.013506    1.399807
