13
0 1
Si        -2.009561   -0.234843   -0.264562
C        -0.593636    0.179773    0.920139
C         0.698519    0.307663    0.194474
S         1.657872   -0.963045   -0.103347
H        -3.281511   -0.203705    0.489090
H        -1.798984   -1.573674   -0.845169
C         1.034631    1.691204   -0.267615
H         1.216695    2.325643    0.604238
H         0.190328    2.131240   -0.803886
H         1.915100    1.696864   -0.902135
H        -2.066131    0.771775   -1.347008
H        -0.550464   -0.631458    1.646001
H        -0.854222    1.108006    1.434293
