19
0 1
C        -1.730851    0.619222   -0.000001
Si        -3.464446   -0.118886    0.000001
O        -0.808488   -0.457571    0.000000
H        -4.435010    0.998777   -0.000001
H        -3.662941   -0.944694    1.208195
C         0.523051   -0.183360    0.000000
H        -3.662941   -0.944697   -1.208191
C         1.054709    1.097057   -0.000001
C         1.368772   -1.287587    0.000001
C         2.433549    1.261684   -0.000002
C         3.279133    0.170467    0.000000
C         2.735434   -1.107524    0.000001
H         0.413646    1.965120   -0.000002
H         2.842617    2.263551   -0.000003
H         4.351403    0.308771   -0.000001
H         3.385433   -1.972640    0.000002
H         0.928713   -2.275332    0.000003
H        -1.586776    1.253184    0.881913
H        -1.586776    1.253182   -0.881915
