18
0 1
Si        -2.270679   -0.244727   -0.414010
C        -0.938309    0.106184    0.876666
H        -2.484350    0.962224   -1.247535
H        -3.543140   -0.579124    0.264408
H        -1.856157   -1.356661   -1.290155
N         0.341386    0.466107    0.277215
C         1.249429   -0.522301    0.059511
O         0.990349   -1.683764    0.319432
C         2.591146   -0.137946   -0.519209
H         3.109578    0.589849    0.105008
H         2.487680    0.286775   -1.518178
H         3.185881   -1.043401   -0.581718
C         0.561571    1.871001    0.027471
H        -0.281863    2.291320   -0.523333
H         1.455801    2.027126   -0.564982
H         0.663959    2.426795    0.964620
H        -0.792568   -0.786641    1.482876
H        -1.250834    0.913652    1.542526
