10
0 2
Si        -1.776839    0.232864   -0.157363
S         0.399862   -0.188237    0.032873
H        -2.397119   -1.102890   -0.049988
H        -2.166459    1.133091    0.952536
O         0.627505   -0.570389    1.408532
O         0.777131   -1.085481   -1.031723
C         1.251317    1.346852   -0.233305
H         0.926787    2.072980    0.508534
H         1.060301    1.691569   -1.246634
H         2.309451    1.122795   -0.101976
