8
0 1
Si        -0.462340   -0.000001    0.000000
C         1.460562   -0.000016    0.000039
Cl        -1.077828    1.286029    1.426296
Cl        -1.077844   -1.878231    0.400535
Cl        -1.077709    0.592236   -1.826907
F         1.950994    1.221523   -0.259993
F         1.950995   -0.835983   -0.927827
F         1.950996   -0.385593    1.187937
