10
0 2
C         2.227262   -0.010204   -0.031597
P        -0.348568    0.029246    0.101390
O        -0.651274    1.163365   -0.952992
O        -1.352628   -1.113076   -0.318495
H        -1.524339   -1.739818    0.393301
O        -0.377834    0.432024    1.500681
O         1.033571   -0.555305   -0.422979
H        -1.165719    1.888040   -0.580072
H         2.256029    0.515937    0.910434
H         3.084299   -0.457690   -0.504649
