8
0 1
Si         1.519072    0.000000    0.000006
C        -0.407072    0.000000    0.000004
F        -0.914240    0.807291    0.952860
H         1.953201    1.384613   -0.250304
F        -0.914232   -1.228852    0.222697
H         1.953196   -0.909078   -1.073954
F        -0.914215    0.421561   -1.175570
H         1.953211   -0.475537    1.324265
