12
0 1
Si         0.474682    1.143021   -0.092434
C        -1.060843    0.582503    0.842045
C         1.774012   -0.249201    0.113290
O         1.788122   -1.099996    0.927382
H         1.048836    2.342618    0.541750
H         0.217552    1.363007   -1.524264
F         2.785800   -0.157053   -0.791541
C        -1.992308   -0.200596   -0.007820
O        -3.081322    0.066487   -0.363905
F        -1.407211   -1.356654   -0.411439
H        -1.595540    1.436217    1.251786
H        -0.703265   -0.048927    1.658724
