15
0 1
C         0.157683    1.727578    0.092428
C        -1.115920    2.134067   -0.262706
C        -2.150375    1.216720   -0.322266
C        -1.893910   -0.108494   -0.022125
C        -0.625215   -0.525971    0.333226
C         0.419261    0.392558    0.392392
H         0.954615    2.459418    0.136176
H        -1.310452    3.172639   -0.494139
Si         2.129822   -0.162608    0.846512
Cl        -3.185854   -1.264099   -0.089632
H        -3.149949    1.522245   -0.596607
H        -0.461192   -1.570494    0.563237
Cl         3.214475   -0.609695   -0.847793
H         2.065674   -1.387632    1.662821
H         2.848093    0.916092    1.547887
