8
0 1
C         0.961163   -0.956176   -0.478782
Si        -0.409871   -0.071898    0.421517
Cl        -2.165998   -0.990396   -0.088419
Cl        -0.469942    1.880397   -0.156920
H        -0.243601   -0.134604    1.876048
Cl         2.541135   -0.318404    0.063821
H         0.888872   -0.816252   -1.554865
H         0.937631   -2.022672   -0.263917
