14
0 1
C         0.820255    0.399167    0.842819
Si         2.123912   -0.352134   -0.296484
C        -0.520399    0.481865    0.191947
O        -0.918093    1.406957   -0.462477
O        -1.237224   -0.635097    0.392844
H         3.411380   -0.386217    0.429086
H         2.265398    0.469009   -1.515132
H         1.736610   -1.727888   -0.670553
C        -2.517213   -0.669825   -0.237577
H        -2.947380   -1.632560    0.020503
H        -2.413325   -0.573931   -1.316923
H        -3.144724    0.140373    0.129210
H         1.138012    1.407718    1.103215
H         0.765939   -0.208751    1.745297
