7
0 1
Si         0.065454    0.811159    0.000001
C        -1.531695   -0.051098    0.000006
C        -2.593909   -0.607980    0.000000
Cl         1.588319   -0.562464   -0.000002
H        -3.535304   -1.104922   -0.000001
H         0.185579    1.632526    1.213214
H         0.185568    1.632523   -1.213216
