14
0 1
Si         0.841676    0.017006    0.016957
C        -1.062416   -0.003022   -0.026424
O        -1.599655   -1.294691    0.069659
H        -1.036416   -1.820376    0.651125
O         1.182283   -1.286173    0.940431
H         2.075397   -1.633167    0.981245
O        -1.588430    0.545041   -1.205976
H        -1.691168   -0.175947   -1.837183
O         1.349409    1.448440    0.599619
H         0.727275    1.898740    1.179430
O        -1.475171    0.812233    1.025671
H        -2.437884    0.896050    0.971921
O         1.539470   -0.217244   -1.434426
H         1.690591    0.553890   -1.985212
