9
0 2
C        -1.248472   -0.250406    0.078832
N        -0.092788    0.469751   -0.125029
C         1.183448   -0.185816    0.031034
H        -0.117820    1.419352    0.209173
H         1.214762   -1.068405   -0.609175
H         1.373946   -0.508439    1.061571
H         1.983420    0.483636   -0.281698
H        -1.234100   -1.290050   -0.215045
H        -2.180548    0.292985    0.051184
