11
0 2
C         1.971008   -0.110972   -0.000001
N         0.698074   -0.615224   -0.000003
C        -0.429802    0.169695    0.000000
O        -0.360845    1.378821    0.000001
H         0.574666   -1.613014   -0.000003
C        -1.741063   -0.570467    0.000003
H        -1.630208   -1.654102   -0.000013
H        -2.311439   -0.271167   -0.878338
H        -2.311422   -0.271191    0.878363
H         2.082992    0.957766   -0.000002
H         2.794786   -0.801830   -0.000009
