15
0 1
C         0.990549   -1.197370    0.175856
C         2.322255   -1.199469   -0.199858
C         2.988476   -0.000020   -0.388432
C         2.322272    1.199446   -0.199912
C         0.990566    1.197382    0.175801
C         0.303378    0.000015    0.367447
H         0.481179   -2.142344    0.322345
H         2.842006   -2.137304   -0.344395
Si        -1.483639    0.000039    0.849812
H         2.842036    2.137267   -0.344493
H         4.030212   -0.000034   -0.681137
H         0.481209    2.142370    0.322247
Cl        -2.693352   -0.000033   -0.822776
H        -1.811842    1.216703    1.614864
H        -1.811848   -1.216555    1.614971
