14
0 1
C         2.637650    1.086839   -0.681443
C         1.266610    1.090526   -0.489840
C         3.375630    0.033253   -0.179569
C         2.713216   -0.979252    0.498253
N         1.403328   -0.984420    0.685508
C         0.686466    0.034764    0.196589
H         3.120862    1.895325   -1.213949
H         0.653966    1.898960   -0.864131
Si        -1.132131   -0.163735    0.539380
Cl        -2.093751    1.610057    0.164985
Cl        -1.914780   -1.599815   -0.686465
H         4.448654   -0.010070   -0.305425
H         3.262331   -1.819701    0.907385
H        -1.391684   -0.552171    1.927472
