10
0 1
Si         2.441240    0.025219   -0.011429
C         0.673465    0.676313    0.019736
S        -0.509153   -0.685164    0.026045
H         3.355789    1.186732    0.008759
H         2.672786   -0.765185   -1.237461
S        -2.330647    0.244350   -0.098716
H         2.696392   -0.820894    1.172601
H        -2.552343    0.448368    1.211051
H         0.509804    1.300094   -0.859151
H         0.536212    1.292951    0.908534
