12
0 2
C        -2.039341   -0.018388    0.067176
C         0.469986    0.173125   -0.019954
O         0.382874    1.373040   -0.027969
C        -0.750831   -0.724801   -0.070454
H        -0.631435   -1.511146    0.686065
H        -0.692389   -1.271661   -1.024494
C         1.802738   -0.525152    0.044858
H         2.602037    0.182201   -0.158824
H         1.847249   -1.359063   -0.656607
H         1.940471   -0.938340    1.046666
H        -2.963017   -0.574953    0.116403
H        -2.061219    1.059940    0.084787
