12
0 2
C        -0.000004    1.632837    0.291095
P         0.000000    0.081102   -0.503506
C         1.431692   -0.796221    0.236050
H         1.346810   -0.872535    1.320042
H         2.347242   -0.259784   -0.011200
H         1.504595   -1.795768   -0.191722
C        -1.431689   -0.796227    0.236049
H        -2.347240   -0.259794   -0.011202
H        -1.346807   -0.872540    1.320042
H        -1.504587   -1.795774   -0.191722
H        -0.919257    2.198663    0.369594
H         0.919246    2.198669    0.369589
