30
0 1
Si         0.481762    2.445203   -0.460231
C        -0.970526    2.318912    0.736024
C        -1.744045    1.049877    0.522788
C        -2.712293    0.954967   -0.467924
C        -1.465986   -0.095064    1.262844
C        -2.123931   -1.286833    1.030546
C        -3.085947   -1.359181    0.036403
C        -3.380736   -0.232511   -0.713553
H        -0.707494   -0.055590    2.034451
H        -1.901917   -2.170909    1.612169
C         1.579777    0.950931   -0.338875
H         1.279178    3.657191   -0.151688
H        -0.067513    2.560362   -1.832208
C         1.203204   -0.268107   -0.900642
C         2.783467    0.987060    0.365725
C         3.577644   -0.133592    0.511428
C         3.175181   -1.332635   -0.055751
C         1.984760   -1.399499   -0.764880
H         3.115678    1.916419    0.813066
H         4.510438   -0.098049    1.057168
O        -3.708172   -2.556072   -0.159709
O         3.983554   -2.411129    0.110973
H        -2.950837    1.825857   -1.066190
H         0.274166   -0.346543   -1.451763
H        -4.135321   -0.279657   -1.490554
H         1.669281   -2.337398   -1.207718
H         3.599999   -3.178485   -0.324668
H        -4.362386   -2.472032   -0.859570
H        -1.610290    3.193532    0.600023
H        -0.584141    2.364125    1.755801
