11
0 2
Si         1.571111   -0.237198   -0.028176
C         0.037686    0.844736   -0.257967
C        -1.125475    0.218947    0.437760
C        -2.102329   -0.449007   -0.156504
H        -2.901944   -0.902828    0.412463
H        -2.137204   -0.563803   -1.233487
H        -0.157122    0.952088   -1.326039
H         0.246303    1.838288    0.142682
H        -1.130889    0.302361    1.520426
H         1.371550   -1.556278   -0.676878
H         1.854455   -0.437109    1.415573
