10
0 2
C         1.195137    1.502426    0.000002
C         0.324680    0.419817   -0.000013
S         0.876580   -1.154018    0.000004
O        -0.973987    0.764744   -0.000005
C        -1.960700   -0.254548    0.000002
H        -2.914475    0.265242    0.000008
H        -1.869465   -0.883132    0.885703
H        -1.869477   -0.883132   -0.885700
H         2.257965    1.329125    0.000017
H         0.807369    2.512068    0.000003
