7
0 2
C         1.387182   -0.442461   -0.000001
O         0.570218    0.643501    0.000000
C        -0.765580    0.444634    0.000000
O        -1.300857   -0.618537    0.000000
H        -1.268217    1.416853    0.000000
H         0.948769   -1.424752    0.000006
H         2.434951   -0.204855    0.000005
