12
0 1
Si        -1.752744   -0.314989   -0.183026
C        -0.381264    0.622888    0.711081
H        -2.306065    0.530203   -1.264564
H        -2.833797   -0.624158    0.778766
H        -1.235151   -1.567179   -0.766699
C         0.741226    0.973927   -0.196442
N         1.761664    0.269746   -0.452012
H         0.715639    1.914315   -0.736160
O         1.747658   -0.935675    0.249476
H         2.565639   -1.357461   -0.028986
H        -0.024889   -0.001236    1.530311
H        -0.815653    1.531652    1.130132
