8
0 2
C         1.435430   -0.489332    0.000001
N         0.569239    0.569962    0.000000
C        -0.792393    0.445959   -0.000004
O        -1.373481   -0.611140    0.000001
H        -1.303946    1.420673   -0.000001
H         0.942451    1.505071   -0.000001
H         1.015095   -1.478392    0.000003
H         2.491352   -0.287725    0.000008
