9
0 1
Si         0.465896   -0.822430    0.364875
C        -1.806072    1.159351    0.369532
S        -1.438182   -0.426472   -0.444734
H        -2.805049    1.448600    0.054081
H        -1.099725    1.924729    0.059018
H        -1.792797    1.055365    1.451920
Cl         1.865070    0.580523   -0.203826
H         0.879579   -2.137416   -0.146889
H         0.436586   -0.778711    1.837210
