23
0 1
Si         2.777979   -0.688554    0.311678
C         1.088125   -1.111420   -0.334976
Cl         3.252885    1.257500   -0.195114
C        -0.044211   -0.250006    0.221340
H         0.909385   -2.166803   -0.099709
H         1.111889   -1.045618   -1.426656
C        -1.411455   -0.634575   -0.324547
H         0.150818    0.801090   -0.006807
H        -0.060324   -0.323816    1.313110
C        -2.540574    0.222048    0.225501
H        -1.608601   -1.687143   -0.096557
H        -1.395850   -0.558517   -1.416523
C        -3.908906   -0.156756   -0.320514
H        -2.340069    1.274276   -0.001314
H        -2.554371    0.145940    1.317816
C        -5.030678    0.705628    0.236024
H        -4.107667   -1.208330   -0.093821
H        -3.893883   -0.079715   -1.411582
H        -5.087646    0.621812    1.323015
H        -5.999570    0.414409   -0.170642
H        -4.872138    1.758604   -0.004501
H         3.815754   -1.558966   -0.274256
H         2.827714   -0.774485    1.784912
