14
0 1
C        -0.604266    0.000012    0.922221
O        -1.002935    0.000021    2.056756
Si         1.257666    0.000003    0.514181
O        -1.387608    0.000001   -0.152817
Cl         1.706996    1.670727   -0.561797
Cl         1.706984   -1.670741   -0.561771
C        -2.812120    0.000005    0.076996
C        -3.487220   -0.000012   -1.267449
H        -3.064448    0.880732    0.667119
H        -3.064449   -0.880706    0.667142
H        -3.210348    0.883995   -1.840737
H        -4.569309   -0.000009   -1.135782
H        -3.210350   -0.884034   -1.840714
H         2.019890    0.000010    1.762978
