8
0 1
C         0.000013   -0.000012    2.093143
Si        -0.000005   -0.000004    0.256085
H        -0.417934   -0.934132    2.467884
H        -0.599978    0.829000    2.467898
H         1.017962    0.105089    2.467881
Cl         0.779548    1.742106   -0.461710
Cl        -1.898492   -0.195943   -0.461721
Cl         1.118940   -1.546153   -0.461728
