11
0 1
C         0.388831    0.014083   -0.020340
Si        -1.527328   -0.022338    0.003776
O         0.794648    1.284009   -0.421729
H         1.702921    1.215746   -0.747847
O         0.875716   -0.956052   -0.897176
H         1.494096   -1.506370   -0.400489
O         0.947618   -0.309673    1.238117
H         0.910363    0.477075    1.792385
H        -2.003619    1.001944    0.958767
H        -1.945890   -1.362217    0.458961
H        -2.052122    0.255792   -1.346293
