20
0 1
C        -1.247922    1.700979    0.505196
Si         0.453601    2.006738   -0.242081
C         1.551880    0.541463    0.320468
H         1.035774    3.235992    0.328389
H         0.383789    2.077780   -1.713309
O         1.789155    0.385762    1.494674
S         2.118340   -0.566312   -0.925748
C         2.954921   -1.783103    0.099872
H         3.340053   -2.552250   -0.564840
H         2.251448   -2.215545    0.806449
H         3.771628   -1.317753    0.644731
C        -1.907121    0.508600   -0.120253
O        -2.468188    0.544556   -1.183163
S        -1.736373   -0.982546    0.818151
C        -2.498084   -2.136567   -0.328018
H        -2.476756   -3.113560    0.149206
H        -1.938876   -2.165770   -1.259134
H        -3.524323   -1.844629   -0.531075
H        -1.870323    2.575676    0.312902
H        -1.124062    1.576673    1.581684
