10
0 2
C        -1.781852   -0.573736    0.000009
C        -0.520070    0.122572    0.000004
O        -0.399909    1.326507   -0.000003
O         0.529135   -0.721661    0.000000
C         1.812558   -0.102734   -0.000008
H         2.533267   -0.914683   -0.000009
H         1.937328    0.519133    0.885231
H         1.937319    0.519127   -0.885252
H        -2.686390    0.012965    0.000009
H        -1.819142   -1.651928    0.000012
