14
0 2
C        -1.354294   -1.200697    0.110523
C        -2.722105   -1.199567   -0.093157
C        -3.407194    0.000000   -0.194899
C        -2.722105    1.199566   -0.093157
C        -1.354294    1.200697    0.110524
C        -0.651422    0.000000    0.206495
H        -0.828029   -2.143731    0.181162
H        -3.254665   -2.137595   -0.175959
Si         1.167852    0.000000    0.569164
H        -0.828030    2.143731    0.181163
Cl         2.045917    1.680288   -0.232396
Cl         2.045917   -1.680288   -0.232395
H        -3.254666    2.137594   -0.175958
H        -4.477215    0.000000   -0.355237
