11
0 1
C        -0.553745    2.056828   -0.547858
Si        -0.316354    0.519331    0.442780
H        -0.564634    1.836428   -1.614907
H         0.270635    2.741963   -0.345638
H        -1.489736    2.549337   -0.285401
C         1.383158   -0.254221    0.035485
Cl        -1.751707   -0.900422   -0.032992
O         2.356121    0.431746    0.177296
O         1.490969   -1.522129   -0.396322
H         0.613700   -1.925303   -0.461179
H        -0.375201    0.741534    1.895506
