15
0 1
C         0.499426   -1.501490   -0.378081
C        -0.835990   -1.746739   -0.136315
C        -1.723216   -0.691841    0.008927
C        -1.262019    0.614296   -0.090429
C         0.080920    0.850400   -0.332542
C         0.980794   -0.197509   -0.478261
H         1.172175   -2.342487   -0.489401
H        -1.209739   -2.757593   -0.058728
Si         2.779158    0.141735   -0.781566
H         0.410465    1.878386   -0.405933
Cl         3.831595    0.056821    0.986721
Cl        -2.330340    1.957115    0.079326
Cl        -3.384581   -1.033904    0.307219
H         2.945875    1.496546   -1.335632
H         3.350066   -0.882390   -1.673708
