9
0 1
C        -0.634429    0.631394   -0.040983
Si         1.101876   -0.105355    0.009105
O        -1.644771   -0.366110    0.109474
H        -1.584300   -0.987830   -0.621214
H         2.117018    0.940486   -0.254782
H         1.197573   -1.147252   -1.041752
H         1.363894   -0.730168    1.322218
H        -0.787888    1.217956   -0.954286
H        -0.767820    1.322303    0.792450
