13
0 1
Si         2.134276   -0.031914    0.000000
C         0.314199   -0.469776   -0.000009
C        -2.072943    0.399796    0.000005
O        -2.517566   -0.712974   -0.000010
H         2.467324    0.772344   -1.199166
H         2.467332    0.772261    1.199219
H         2.964176   -1.256258   -0.000045
C        -0.609186    0.737942    0.000012
H        -0.436698    1.385249    0.867900
H        -0.436696    1.385281   -0.867852
H        -2.753687    1.275659    0.000018
H         0.098244   -1.095877    0.868316
H         0.098245   -1.095845   -0.868358
