12
0 1
C        -0.774052    0.803733    0.000066
Si         0.412480   -0.658594   -0.000014
C         2.124187   -0.020198   -0.000016
H         0.202398   -1.476994   -1.208269
H         0.202428   -1.477098    1.208175
C        -2.153085    0.355743    0.000024
C        -3.272038   -0.064626   -0.000007
C         3.241404    0.417851   -0.000039
H         4.233821    0.802451   -0.000059
H        -4.271470   -0.424832   -0.000040
H        -0.570186    1.420948   -0.877558
H        -0.570204    1.420836    0.877774
