8
0 1
Si        -0.344521    0.439998    0.389616
Cl        -1.914409   -0.727702   -0.144918
C         1.233621   -0.290761   -0.379189
F        -0.541237    1.884177   -0.232787
F         1.466428   -1.523752    0.163959
F         2.295190    0.508286   -0.052983
H        -0.239161    0.538813    1.846728
H         1.222245   -0.401692   -1.466320
