11
0 2
Si         1.813638    0.067994   -0.094867
N         0.254731   -0.694832    0.036378
H         1.873004    1.248907    0.800135
H         2.791439   -0.968952    0.307681
C        -1.016870   -0.157470    0.005662
O        -1.994633   -0.867625    0.013348
H         0.211630   -1.706239    0.029961
C        -1.103175    1.344899   -0.021771
H        -0.711880    1.763682    0.906119
H        -2.143317    1.632317   -0.135926
H        -0.517589    1.758620   -0.844613
