20
0 1
C        -0.845843   -0.534538   -0.595020
Si         0.844411   -1.111802   -0.025096
C         1.881710    0.311269    0.620139
H         1.549093   -1.755722   -1.162996
H         0.684179   -2.126722    1.047320
C        -1.662306    0.184946    0.478078
C        -3.037315    0.617171   -0.009130
H        -1.775344   -0.465915    1.349757
H        -1.114133    1.063326    0.829923
H        -3.624427   -0.244221   -0.332751
H        -2.953438    1.296413   -0.859606
H        -3.598162    1.129263    0.773975
C         2.077163    1.442805   -0.388863
H         2.851140   -0.087937    0.929728
H         1.415805    0.696676    1.531119
H         2.552550    1.083425   -1.303291
H         2.704443    2.238679    0.014864
H         1.124921    1.893128   -0.674290
H        -1.400142   -1.404656   -0.960196
H        -0.718697    0.119583   -1.463436
