8
0 2
C         1.566221   -0.262255   -0.402895
S        -0.037149    0.042710    0.139753
O        -0.450242   -1.030464    0.983236
O        -0.123608    1.401084    0.542862
O        -0.882361   -0.057114   -1.208099
H        -1.263517   -0.944095   -1.278582
H         2.085457   -1.122347   -0.011754
H         2.024811    0.448563   -1.072327
