14
0 1
C         3.053438    1.157452   -0.000001
C         1.670896    1.242754   -0.000001
C         3.641753   -0.090606    0.000000
C         2.823434   -1.211430    0.000002
N         1.503463   -1.139967    0.000001
C         0.932723    0.069426    0.000000
H         3.658747    2.054180   -0.000002
H         1.173461    2.202179   -0.000002
Si        -0.924896   -0.001949    0.000000
Cl        -1.689497    1.891673   -0.000003
Cl        -1.599680   -0.970652    1.652150
Cl        -1.599680   -0.970658   -1.652146
H         4.717009   -0.203968    0.000000
H         3.252185   -2.207092    0.000002
