7
0 1
Si         0.000000    0.337519    0.000000
Cl         1.672771   -0.812416    0.009547
Cl        -1.672771   -0.812416   -0.009547
O        -0.080007    1.217517   -1.355954
H         0.693644    1.708305   -1.642584
O         0.080007    1.217517    1.355954
H        -0.693645    1.708302    1.642587
