10
0 2
Si         2.291479    0.018153    0.000000
C         0.500556    0.606740   -0.000001
C        -0.487203   -0.539376    0.000001
H        -0.386237   -1.163661    0.883746
H        -0.386237   -1.163665   -0.883742
Cl        -2.191200    0.044600    0.000000
H         0.336848    1.236335   -0.876107
H         0.336848    1.236339    0.876102
H         2.594176   -0.780937   -1.212551
H         2.594176   -0.780930    1.212556
