8
0 1
C         0.000000    2.006652   -0.302901
Si         0.000000    0.325122    0.452441
H         0.000000    0.342983    1.921269
Cl         1.666559   -0.705708   -0.149015
Cl        -1.666559   -0.705708   -0.149015
H         0.886046    2.560496    0.009494
H        -0.886052    2.560492    0.009484
H         0.000007    1.938471   -1.390527
