13
0 2
C        -2.679697    1.166707   -0.404432
C        -1.311537    1.193155   -0.195992
C        -3.362639   -0.014504   -0.192846
C        -2.648782   -1.127960    0.225495
N        -1.342107   -1.112999    0.429609
C        -0.678529    0.026784    0.212179
H        -3.202233    2.056558   -0.729916
H        -0.741563    2.097286   -0.356402
Si         1.155974   -0.100456    0.577206
Cl         1.970841   -1.666114   -0.461478
Cl         2.077793    1.650149   -0.005015
H        -4.431204   -0.079893   -0.344006
H        -3.153538   -2.070265    0.406125
