7
0 2
C         1.369042   -0.686972    0.163847
S        -0.031439    0.157718   -0.380673
O        -0.089340    1.437486    0.310108
O        -1.091628   -0.911107    0.294438
H        -1.945067   -0.794781   -0.144389
H         1.480505   -1.732524   -0.082943
H         2.201084   -0.085372    0.498644
