18
0 1
C        -0.406698    1.616709    0.011634
C        -1.733278    1.787587   -0.347869
C        -2.591927    0.705013   -0.360765
C        -2.147526   -0.567363   -0.015126
C        -0.817553   -0.719863    0.343279
C         0.068634    0.356987    0.360705
H         0.257959    2.471841    0.019894
H        -2.098924    2.769559   -0.617911
Si         1.843056    0.111190    0.823449
C        -3.089315   -1.735870   -0.033197
H        -3.628705    0.846733   -0.642137
H        -0.464780   -1.708384    0.616576
Cl         2.943690   -0.525053   -0.803925
H        -3.939803   -1.565923    0.628685
H        -2.591446   -2.649694    0.286903
H        -3.486154   -1.903567   -1.035696
H         1.976938   -0.933919    1.854858
H         2.435383    1.383383    1.275298
