10
0 1
C        -0.080622    0.603524    0.021767
Si         1.673349   -0.098991    0.003120
O        -0.968865   -0.487220   -0.038618
H         2.599029    1.052169    0.080265
H         1.917631   -0.850575   -1.243644
O        -2.305117    0.040247   -0.085699
H        -2.680447   -0.337265    0.721113
H         1.885607   -0.981155    1.168713
H        -0.228270    1.265437   -0.837702
H        -0.244847    1.191895    0.931510
