11
0 2
C         0.000000    1.211658    0.000001
C         1.246648    0.565957    0.000001
C         1.367173   -0.789314    0.000003
C        -1.246648    0.565957    0.000001
C        -1.367173   -0.789314    0.000003
Si         0.000000   -2.084699   -0.000029
F         0.000000    2.527753   -0.000003
F         2.317327    1.357871    0.000000
F         2.625588   -1.255296    0.000020
F        -2.317327    1.357871    0.000000
F        -2.625588   -1.255296    0.000020
