11
0 1
Si         0.000000    0.078600    0.354477
C        -1.542857   -0.789654   -0.193524
F         0.000000    1.551098   -0.291616
H        -1.564490   -0.906672   -1.278042
H        -2.432469   -0.234295    0.105208
C         1.542857   -0.789654   -0.193524
H         1.564490   -0.906672   -1.278042
H         1.602831   -1.783929    0.253611
H         2.432469   -0.234295    0.105208
H        -1.602831   -1.783929    0.253611
H         0.000000    0.265372    1.822605
