7
0 2
Si        -0.722149   -0.570236    0.106320
C         1.058764   -0.344304   -0.478918
F        -1.523754    0.791660   -0.158006
H         1.098374    0.044253   -1.498349
H         1.597623   -1.294539   -0.451692
F         1.726676    0.557053    0.354811
H        -0.764793   -0.838999    1.563829
