8
0 1
Si        -0.478705    0.019285    0.324560
C         1.140173   -0.623101   -0.352159
F        -0.794633    1.433516   -0.314094
F        -1.618422   -0.983043   -0.139755
H         1.172448   -0.578670   -1.443132
H         1.321671   -1.657540   -0.050678
F         2.176934    0.166893    0.151488
H        -0.508194    0.148534    1.784160
