11
0 1
Si         0.782349   -0.463848    0.184686
C        -0.974326   -0.566828   -0.402469
F         1.387992    0.968058   -0.214619
C        -1.895810    0.498983    0.193326
H        -1.553999    1.502893   -0.059978
H        -1.931873    0.430534    1.281714
H        -2.916160    0.394789   -0.176322
H        -1.341797   -1.569250   -0.158983
H        -0.976374   -0.505757   -1.494201
H         1.631605   -1.494036   -0.448569
H         0.864598   -0.570749    1.657164
