8
0 1
Si         0.150168    0.482210   -0.000001
C        -1.499161   -0.355673   -0.000001
F         1.306448   -0.628909    0.000002
H        -1.621992   -0.982304    0.883872
H        -1.621988   -0.982311   -0.883869
H        -2.298699    0.388068   -0.000006
H         0.338631    1.309912    1.208933
H         0.338633    1.309909   -1.208936
