7
0 2
C         0.904314    0.000000   -0.003134
F         1.526982   -1.082345   -0.492301
Si        -0.981933    0.000000   -0.483252
F         1.526982    1.082345   -0.492301
F        -1.602987   -1.282941    0.206066
F        -1.602987    1.282941    0.206066
F         1.076585    0.000000    1.326285
