7
0 2
Si         1.534343   -0.912096   -0.031809
C        -0.041692   -0.000165    0.505370
Cl        -1.484621   -0.864113   -0.078839
Cl        -0.006470    1.679460   -0.107507
H        -0.140683    0.075048    1.582663
H         1.551520   -0.981549   -1.507815
H         2.707066   -0.184065    0.506140
