16
0 2
Si        -1.918851    0.367641   -0.348344
C        -0.237440   -0.530464   -0.257147
O        -0.244497   -1.384065    0.906379
N         0.913937    0.304800   -0.388180
C         2.154696   -0.433291   -0.534168
H         2.047489   -1.176121   -1.324158
H         2.453808   -0.952219    0.385213
H         2.952898    0.253128   -0.817937
C         1.026323    1.371619    0.581929
H         0.110062    1.962347    0.607448
H         1.838795    2.038967    0.294943
H         1.237469    1.014751    1.601478
H        -0.217563   -1.240347   -1.085857
H        -0.444233   -0.859267    1.688403
H        -2.257835    0.914030    0.993891
H        -2.960029   -0.610505   -0.744076
