10
0 1
Si         1.365526   -0.164358    0.000000
C        -0.529475    0.198694   -0.000002
O        -0.859533    1.361480    0.000001
C        -1.541546   -0.912086    0.000000
H        -1.392377   -1.547946   -0.876093
H        -2.551225   -0.505379    0.000009
H        -1.392365   -1.547957    0.876083
H         1.937847    0.454385    1.211329
H         1.937876    0.454496   -1.211258
H         1.645279   -1.618078   -0.000060
