18
0 2
Si         1.005226    2.207208   -0.068620
C        -0.202802    0.804243   -0.005047
C         0.240595   -0.525359   -0.000728
C        -0.658595   -1.579557    0.021090
H        -0.315868   -2.602954    0.032847
C        -2.020332   -1.313062    0.022822
C        -1.575880    1.032228   -0.012422
H        -1.940295    2.052178   -0.022558
C        -2.485757   -0.012142    0.003371
H        -3.547919    0.189914    0.003814
H        -2.718839   -2.139388    0.037684
O         1.586834   -0.685262   -0.021513
C         2.120957   -1.989652   -0.015588
H         3.200926   -1.874189   -0.035967
H         1.800863   -2.553910   -0.894910
H         1.832486   -2.532787    0.887613
H         2.139874    2.068357    0.869403
H         0.271831    3.473780    0.173865
