12
0 1
Si        -2.180845    0.005099    0.000000
O        -0.659098   -0.716967    0.000001
C         0.426057    0.048066    0.000001
O         0.408997    1.250850   -0.000002
O         1.512653   -0.707529    0.000001
C         2.750767    0.006126   -0.000001
H         2.827601    0.631483   -0.887242
H         3.524914   -0.754370   -0.000001
H         2.827603    0.631486    0.887238
H        -3.096679   -1.147043    0.000002
H        -2.356486    0.815537   -1.216065
H        -2.356486    0.815540    1.216064
