11
0 1
Si        -1.141958   -0.122191    0.000000
C         0.556310    0.666785    0.000000
C         1.702901   -0.344054    0.000000
H         0.630238    1.321123   -0.872524
H         1.664500   -0.989343    0.879117
H         2.674163    0.152220    0.000000
H         1.664500   -0.989344   -0.879116
H         0.630237    1.321123    0.872523
H        -1.313409   -0.975433   -1.199521
H        -2.204681    0.909373   -0.000001
H        -1.313409   -0.975431    1.199522
