8
0 1
Si         1.893106   -0.000012    0.000017
Si        -0.430178    0.000002    0.000004
F        -1.021554   -0.845448   -1.198087
F        -1.021622   -0.614842    1.331205
F        -1.021538    1.460310   -0.133151
H         2.367147   -1.392186    0.127882
H         2.367186    0.806832    1.141709
H         2.367109    0.585322   -1.269591
