11
0 1
Si        -2.034557   -0.574889    0.000003
C        -0.269030    0.105111   -0.000010
S        -0.071183    1.721567    0.000003
S         0.964454   -1.080908   -0.000007
C         2.480663   -0.127660    0.000005
H         3.297345   -0.846096    0.000010
H         2.529867    0.501732    0.885599
H         2.529880    0.501735   -0.885586
H        -2.713533   -0.084798    1.212579
H        -2.008331   -2.054569    0.000004
H        -2.713550   -0.084800   -1.212564
