8
0 2
Si         1.771533    0.006289   -0.078130
S        -0.435784    0.097185   -0.109492
O        -0.833950    1.451643    0.086926
O        -0.935519   -0.676824   -1.208421
O        -0.855624   -0.694771    1.227560
H        -1.199595   -1.564313    0.974839
H         2.147859   -1.421785   -0.119591
H         2.223569    0.702711    1.141920
