8
0 2
Si         1.702879   -0.066601   -0.083643
C        -0.064072    0.455313    0.003153
N        -0.973587   -0.436156    0.010819
H        -0.357900    1.506963   -0.018708
O        -2.241169    0.116896    0.009077
H        -2.824821   -0.649300    0.026226
H         1.898176   -1.450284    0.391502
H         2.573129    0.911081    0.604720
