10
0 2
Si        -1.707787    0.011264   -0.086180
N        -0.047169   -0.431205   -0.017293
C         0.937157    0.358508    0.024805
C         2.354834   -0.101998    0.007863
H         2.877406    0.327036   -0.851086
H         2.402857   -1.187233   -0.039259
H         2.876199    0.252414    0.900498
H         0.805241    1.451309    0.081632
H        -1.966702    1.420163    0.329479
H        -2.507749   -0.942011    0.710299
