19
0 1
Si        -3.228147   -0.200252   -0.000001
C        -1.378476   -0.007467   -0.000001
C        -0.775732    1.255379    0.000000
C         0.591635    1.402675    0.000001
C         1.413273    0.277805    0.000001
C        -0.537806   -1.112295   -0.000002
H        -0.960520   -2.109696   -0.000003
C         0.844713   -0.986700   -0.000001
H         1.458494   -1.874498   -0.000001
H        -1.390039    2.148434    0.000000
O         2.744571    0.517099    0.000002
C         3.625213   -0.584362    0.000002
H         3.489933   -1.202206    0.891209
H         4.629078   -0.169112    0.000003
H         3.489934   -1.202205   -0.891206
H         1.054533    2.380001    0.000002
H        -3.834020    0.433774    1.193651
H        -3.562793   -1.641762   -0.000019
H        -3.834022    0.433804   -1.193636
