10
0 2
Si        -1.552893    0.074870   -0.138442
C         0.370837    0.012530    0.005734
O         0.953070    1.273762    0.120567
H         0.749606    1.769992   -0.679027
O         0.859465   -0.673340   -1.109402
H         1.823873   -0.708610   -1.020326
O         0.764708   -0.618398    1.190310
H         0.496247   -1.541913    1.136023
H        -2.090537    0.811646    1.027317
H        -2.081646   -1.310680   -0.171998
