23
0 2
C         0.898968    1.373228   -0.128376
C         2.269964    0.958646    0.391547
C         2.683657   -0.401495   -0.156400
C         1.625266   -1.457021    0.138796
C         0.256308   -1.034112   -0.379166
C        -1.535200    0.758733   -0.373905
C        -0.173528    0.325661    0.167993
Si        -2.991783   -0.314983    0.138488
H         0.950882    1.522171   -1.212908
H         0.604584    2.332956    0.302823
H         2.240474    0.911738    1.485071
H         3.013773    1.714977    0.133221
H         3.646246   -0.702558    0.261580
H         2.823036   -0.325354   -1.239845
H         1.566282   -1.614449    1.220650
H         1.911532   -2.415182   -0.299153
H        -0.489873   -1.792948   -0.129468
H         0.282238   -0.977685   -1.473544
H        -1.498968    0.812503   -1.466170
H        -1.762231    1.774849   -0.031390
H        -0.250247    0.234674    1.258959
H        -4.274437    0.270644   -0.326776
H        -3.030948   -0.478410    1.615192
