17
0 1
Si        -2.351800   -0.216642   -0.000002
C        -0.711239    0.684270   -0.000029
C         0.505830   -0.239071    0.000006
H        -0.678818    1.342780   -0.873286
C         1.831774    0.508983   -0.000004
H         0.469045   -0.897873   -0.873379
H         0.469033   -0.897826    0.873425
C         3.036498   -0.418406    0.000028
H         1.870934    1.165258    0.874184
H         1.870946    1.165213   -0.874226
H         3.035222   -1.063665    0.880624
H         3.972321    0.141130    0.000020
H         3.035234   -1.063710   -0.880535
H        -0.678824    1.342834    0.873187
H        -2.468158   -1.079041   -1.199464
H        -3.480684    0.742079   -0.000116
H        -2.468230   -1.078839    1.199598
