9
0 1
Si        -1.054551    0.089379    0.000000
O         0.448669   -0.560254    0.000000
C         1.636242    0.201413    0.000001
H         2.481601   -0.484728    0.000001
H         1.701632    0.835495    0.888969
H         1.701633    0.835495   -0.888968
H        -2.002606   -1.038242   -0.000002
H        -1.262672    0.937119   -1.198916
H        -1.262674    0.937116    1.198918
