16
0 1
Si         2.405375    0.115998   -0.000001
O         0.800539    0.621796   -0.000002
C        -0.138981   -0.346050   -0.000001
O         0.177591   -1.518725    0.000002
N        -1.403764    0.119609   -0.000004
C        -1.751640    1.522369    0.000001
H        -0.855635    2.130456   -0.000022
H        -2.345732    1.763900    0.884914
H        -2.345772    1.763893   -0.884887
C        -2.501794   -0.820338    0.000004
H        -3.124748   -0.676499    0.886001
H        -2.105150   -1.829640    0.000000
H        -3.124762   -0.676497   -0.885982
H         3.138309    1.396142   -0.000002
H         2.722017   -0.646725   -1.218078
H         2.722016   -0.646724    1.218077
