7
0 1
Si         1.588031    0.000001    0.000074
C        -1.306041    0.000001   -0.000063
O        -2.469752    0.000001    0.000146
N        -0.118684   -0.000003   -0.000337
H         2.064513   -0.237190   -1.374476
H         2.064001   -1.071901    0.892917
H         2.064105    1.309082    0.482099
