13
0 2
Si        -1.828066   -0.325195   -0.079183
C        -0.022760    0.145542   -0.004642
N         0.792389   -0.832982   -0.004542
C         2.216094   -0.569720    0.021539
H         2.538283   -0.047954   -0.885429
H         2.755871   -1.511792    0.082042
H         2.504029    0.051021    0.875709
C         0.388253    1.596686   -0.004208
H        -0.472509    2.261428   -0.047067
H         1.035420    1.817243   -0.855744
H         0.953094    1.832487    0.900468
H        -2.688379    0.656677    0.625225
H        -2.069131   -1.710556    0.369024
