8
0 1
F         0.914243   -1.074535   -0.636423
F         0.914235    1.088434   -0.612354
F         0.914217   -0.013894    1.248790
C         0.407073   -0.000003   -0.000007
Si        -1.519079   -0.000002   -0.000005
H        -1.953213    0.015877   -1.406963
H        -1.953191    1.210529    0.717227
H        -1.953193   -1.226410    0.689727
