10
0 2
Si        -0.930873   -0.777161    0.000000
C         0.000000    0.854952    0.000000
C         1.522205    0.685817    0.000000
H        -0.314610    1.431317   -0.872907
H         1.861786    0.137332   -0.879481
H         1.861786    0.137332    0.879481
H        -0.314610    1.431317    0.872907
H         2.025876    1.654221    0.000000
H        -0.610615   -1.577936   -1.209410
H        -0.610615   -1.577936    1.209410
