7
0 2
Si         1.533261   -0.233248   -0.100880
C        -0.030174    0.803430    0.093117
Cl        -1.494802   -0.222354   -0.027699
H        -0.104026    1.569883   -0.674621
H        -0.061311    1.293209    1.065562
H         1.574703   -1.293857    0.930499
H         2.717664    0.655686    0.003065
