11
0 1
Si         1.712239   -0.063482    0.000001
C        -0.096006    0.444132    0.000007
N        -1.005732   -0.430780   -0.000009
H        -0.362103    1.515338    0.000025
C        -2.383725   -0.001157   -0.000002
H        -2.883403   -0.415682   -0.876637
H        -2.496034    1.090389    0.000015
H        -2.883404   -0.415711    0.876618
H         1.818362   -1.533242   -0.000048
H         2.376865    0.502593    1.196040
H         2.376880    0.502674   -1.195992
