11
0 2
Si        -2.256698   -0.080861   -0.000008
O        -0.701735   -0.722387   -0.000017
C         0.379783    0.054231    0.000005
O         0.356066    1.255232    0.000038
O         1.469497   -0.697142   -0.000018
C         2.704346    0.022375    0.000001
H         2.778091    0.648106   -0.887230
H         3.482029   -0.734507   -0.000021
H         2.778093    0.648055    0.887269
H        -2.469910    0.712617   -1.230229
H        -2.469932    0.712529    1.230267
