10
0 2
Si         1.797309    0.037655    0.000000
S        -0.413648   -0.190429    0.000001
O        -0.781692   -0.808204    1.250546
C        -1.108371    1.448364   -0.000009
O        -0.781692   -0.808220   -1.250537
H        -0.799173    1.973295    0.900564
H        -2.188808    1.303793   -0.000009
H        -0.799172    1.973283   -0.900590
H         2.200239    0.755270    1.228911
H         2.200240    0.755256   -1.228919
