11
0 2
Si        -1.802750   -0.279110   -0.083355
C         0.000852    0.151421    0.002745
N         0.783249   -0.858996    0.005482
O         2.122494   -0.486405    0.016005
H         2.584505   -1.330769    0.024620
C         0.494000    1.567098   -0.005632
H        -0.331431    2.275947   -0.018544
H         1.128704    1.743771   -0.874833
H         1.105874    1.754228    0.877701
H        -2.609691    0.720435    0.653941
H        -2.071266   -1.662975    0.354994
