11
0 2
Si         0.902979    1.762960    0.134910
C         0.057055    0.150773   -0.500471
N         0.836541   -1.060389   -0.075721
O         2.033863   -0.883735   -0.001451
O         0.251092   -2.092890    0.101830
N        -1.340006    0.039333    0.002483
H         0.015514    0.097722   -1.586424
O        -1.471650    0.001467    1.203574
O        -2.223859    0.047839   -0.819597
H        -0.172190    2.778301    0.150576
H         1.981325    2.103842   -0.812249
