11
0 1
Si        -1.656852    0.021138   -0.000004
N         0.012043   -0.445075    0.000003
C         0.985699    0.349935    0.000000
C         2.409724   -0.095067    0.000005
H         2.925669    0.303842   -0.876684
H         2.470577   -1.180658    0.000012
H         2.925666    0.303853    0.876691
H         0.844837    1.444124   -0.000008
H        -2.301850   -0.540235    1.204131
H        -2.301844   -0.540249   -1.204135
H        -1.823968    1.499704   -0.000012
