9
0 2
Si         1.522457    0.083693    0.231413
O         0.095077   -0.542567   -0.385605
O        -0.903009    0.492286   -0.324652
C        -2.033665   -0.088383    0.282893
H        -2.786091    0.699430    0.277520
H        -1.817781   -0.392180    1.309469
H        -2.383932   -0.944710   -0.295390
H         2.498522   -0.976428   -0.117238
H         1.840332    1.374730   -0.429450
