13
0 1
N        -0.366182    0.000000   -0.147407
Si         1.340596    0.000000    0.010650
C        -1.138796   -1.208900    0.028619
H        -1.540713   -1.306740    1.045958
H        -0.527333   -2.087491   -0.176771
H        -1.986814   -1.224586   -0.663581
C        -1.138796    1.208900    0.028619
H        -0.527333    2.087491   -0.176770
H        -1.540714    1.306739    1.045958
H        -1.986814    1.224586   -0.663581
H         1.862744   -1.220581   -0.641982
H         1.844710    0.000000    1.412070
H         1.862744    1.220581   -0.641981
