21
0 1
C         1.244156    0.120690   -0.000008
Si         2.595470   -1.167360    0.000006
C        -0.141116   -0.221586   -0.000005
C        -0.588283   -1.562833   -0.000008
H         0.137911   -2.365590   -0.000017
C        -1.917725   -1.866302   -0.000003
H        -2.235818   -2.900317   -0.000001
C        -2.880891   -0.841200    0.000004
H        -3.933012   -1.092740    0.000008
C        -2.486112    0.462953    0.000004
H        -3.220140    1.259136    0.000006
C        -1.116339    0.806459    0.000001
C        -0.695577    2.155580    0.000002
H        -1.447717    2.934739    0.000009
C         0.627793    2.469826   -0.000002
H         0.944750    3.504228    0.000005
C         1.595307    1.446293   -0.000005
H         2.641671    1.725736   -0.000008
H         2.516763   -2.039375   -1.193853
H         2.516739   -2.039353    1.193878
H         3.895010   -0.462696    0.000007
