13
0 2
Si        -0.114410    1.423145    0.000000
C         0.360380   -0.403983    0.000000
C        -0.114410   -1.120725    1.262244
H         0.247187   -0.634947    2.169502
H         0.238644   -2.154420    1.275849
H        -1.204929   -1.146635    1.312382
C        -0.114410   -1.120725   -1.262244
H         1.457797   -0.403194    0.000000
H        -1.204929   -1.146635   -1.312382
H         0.238644   -2.154420   -1.275849
H         0.247187   -0.634947   -2.169502
H         0.396390    2.111884   -1.213207
H         0.396390    2.111884    1.213207
