10
0 1
N         0.481936    0.544150   -0.061388
Si        -1.101180   -0.103288    0.003628
C         1.688443   -0.256504    0.016218
H         0.614404    1.506960    0.199600
H         1.519252   -1.219909   -0.467579
H         2.014435   -0.456029    1.042933
H         2.511084    0.227134   -0.513191
H        -1.236673   -1.150663   -1.034682
H        -2.044187    1.008505   -0.243181
H        -1.466001   -0.739996    1.297716
