10
0 2
Si         1.906994   -0.459113   -0.083860
C         0.091279   -0.021705    0.006154
S        -0.410696    1.530409    0.011832
O        -0.697454   -1.092068    0.003494
C        -2.114025   -0.915026   -0.002392
H        -2.529589   -1.917658   -0.016762
H        -2.419933   -0.353163   -0.883738
H        -2.431329   -0.375127    0.888306
H         2.221436   -1.728474    0.607244
H         2.748736    0.672391    0.339154
