14
0 2
O         0.539733   -1.314512   -0.013304
N         0.352853    1.336974    0.102858
C        -1.561986   -0.135273   -0.367896
C        -1.096814    1.218055    0.148845
C        -0.844466   -1.296388    0.295620
Si        1.448617    0.047150   -0.183146
H        -0.969316   -1.245043    1.383306
H        -1.263096   -2.244732   -0.043120
H        -1.398518   -0.196908   -1.447168
H        -2.635757   -0.231257   -0.195579
H         0.695837    2.277010    0.211921
H        -1.453718    1.344342    1.178835
H        -1.562519    2.006491   -0.448186
H         2.538213    0.068916    0.851049
