7
0 1
Si         1.597985   -0.394262   -0.001311
S        -0.067004    0.955875    0.010401
S        -1.592673   -0.444790   -0.086234
H        -1.755287   -0.633916    1.232550
H         2.802788    0.461802    0.025620
H         1.577639   -1.224790   -1.219512
H         1.557882   -1.260777    1.193031
