18
0 2
Si        -3.267061   -0.211117   -0.074021
C        -1.432353   -0.015345   -0.008933
C        -0.832422    1.251521   -0.009910
C         0.533950    1.401374   -0.001548
C         1.359139    0.278923    0.000902
C        -0.584868   -1.120877   -0.013408
H        -1.004319   -2.119915   -0.015838
C         0.793964   -0.989514   -0.005266
H         1.411711   -1.874567   -0.001318
H        -1.452309    2.140087   -0.009677
O         2.688843    0.521271    0.010300
C         3.574037   -0.577044    0.011993
H         3.436130   -1.197735    0.900707
H         4.576044   -0.157535    0.018938
H         3.446177   -1.192395   -0.881912
H         0.994239    2.379907    0.005623
H        -3.956395    0.932798    0.569804
H        -3.691846   -1.499411    0.524582
