9
0 1
Si         1.074953    0.076797    0.000000
C        -0.681459   -0.527034    0.000000
C        -1.732409    0.281607    0.000000
H        -0.865280   -1.598479    0.000001
H        -1.623230    1.360555   -0.000001
H        -2.749785   -0.093421    0.000000
H         1.075151    1.556220   -0.000001
H         1.798506   -0.413737   -1.195031
H         1.798505   -0.413734    1.195032
