9
0 2
Si         1.835194   -0.120134   -0.065144
P        -0.410094    0.019395   -0.111119
O        -1.014125    0.087067   -1.445476
O        -0.930036   -1.236107    0.742829
H        -1.380959   -1.877941    0.180631
O        -0.722824    1.251110    0.852962
H        -1.594942    1.641320    0.705626
H         2.351800   -0.190779    1.317928
H         2.418672    1.001807   -0.827892
