8
0 1
N        -0.998558    0.035361   -0.000003
Si         1.616810   -0.001662   -0.000001
O        -0.755291    1.219572    0.000007
O        -2.052746   -0.509661    0.000001
O         0.095627   -0.790535   -0.000002
H         2.504976   -1.173912    0.000001
H         1.774428    0.797326    1.222503
H         1.774432    0.797324   -1.222507
