15
0 1
O         0.445246   -1.311694   -0.204894
N         0.363912    1.342758   -0.166750
C        -1.645933   -0.065402   -0.280368
C        -1.040342    1.240323    0.218691
C        -0.907110   -1.291504    0.227760
Si        1.402883   -0.003966    0.039929
H        -0.943908   -1.326005    1.323979
H        -1.376870   -2.201832   -0.145183
H        -1.632231   -0.073670   -1.372297
H        -2.688183   -0.125314    0.041665
H         0.726005    2.281496   -0.148269
H        -1.175209    1.302247    1.308121
H        -1.591473    2.076610   -0.214660
H         2.500003    0.006061   -0.945910
H         1.992460   -0.090328    1.403447
