20
0 2
C         1.278586    0.028652   -0.005776
Si         2.581020   -1.289246   -0.065002
C        -0.124933   -0.246302   -0.005819
C        -0.640063   -1.561866   -0.026127
H         0.045220   -2.398790   -0.046638
C        -1.983469   -1.797012   -0.021570
H        -2.353429   -2.813491   -0.038120
C        -2.893246   -0.724934    0.004167
H        -3.956834   -0.922344    0.009156
C        -2.431916    0.556973    0.020128
H        -3.123742    1.389875    0.036810
C        -1.046315    0.830080    0.012381
C        -0.560723    2.157144    0.015932
H        -1.274028    2.971753    0.028482
C         0.777707    2.407400   -0.000162
H         1.144044    3.425344    0.001501
C         1.693029    1.341434   -0.013392
H         2.751800    1.569848   -0.019707
H         2.320105   -2.438187    0.832766
H         3.900636   -0.683982    0.227186
