11
0 1
Si         0.798570   -0.825410    0.000000
C         0.000000    0.868368    0.000000
C        -1.527986    0.826775    0.000000
H         0.362436    1.418157    0.872522
H        -1.911906    0.306703    0.879118
H        -1.911906    0.306703   -0.879118
H         0.362436    1.418157   -0.872522
H        -1.955815    1.830071    0.000000
H         0.383632   -1.590399    1.199532
H         2.275430   -0.714110    0.000000
H         0.383632   -1.590399   -1.199532
