8
0 1
Si         1.493097   -0.189648    0.000000
C        -0.081369    0.838204    0.000000
Cl        -1.519220   -0.234111    0.000000
H        -0.151154    1.472152   -0.881056
H        -0.151154    1.472152    0.881056
H         1.530168   -1.034453   -1.209507
H         1.530168   -1.034453    1.209507
H         2.653566    0.730335   -0.000001
