7
0 1
Si        -1.501053   -0.127608    0.000001
C         0.209252    0.648767   -0.000003
S         1.583311   -0.183156   -0.000001
H         0.265857    1.739253    0.000009
H        -1.378413   -1.595101   -0.000029
H        -2.230610    0.340153   -1.199760
H        -2.230582    0.340106    1.199798
