8
0 1
Si        -1.093441   -0.097418   -0.000001
C         0.659357    0.607909   -0.000001
F         1.589250   -0.436564    0.000004
H         0.847672    1.223060    0.882791
H         0.847675    1.223054   -0.882798
H        -1.302479   -0.920041    1.208484
H        -1.302475   -0.920052   -1.208479
H        -2.041609    1.039460   -0.000008
