7
0 2
N         0.957270    0.053760    0.000000
Si        -1.682698   -0.096068    0.000003
O         0.686756    1.228954   -0.000001
O         2.019461   -0.472271    0.000008
O        -0.129469   -0.807391   -0.000018
H        -1.878551    0.687188   -1.235918
H        -1.878554    0.687120    1.235967
