7
0 2
Si         1.387772   -0.129859    0.001693
C        -0.484664    0.019164    0.391246
F        -0.998561    1.139400   -0.212357
F        -1.162571   -1.053760   -0.119307
H        -0.731024    0.086871    1.453592
H         1.568165   -0.167230   -1.464883
H         2.092228    1.012646    0.625090
