9
0 1
S        -0.549538   -0.738063   -0.000001
Si         1.344673    0.224333    0.000000
C        -1.632475    0.723706    0.000002
H        -2.656756    0.359483    0.000001
H        -1.475105    1.328398   -0.890431
H        -1.475104    1.328395    0.890436
H         2.357101   -0.848860   -0.000002
H         1.505947    1.079347    1.197134
H         1.505946    1.079351   -1.197131
