11
0 2
Si         1.854788   -0.294360   -0.083209
C         0.039436    0.292530   -0.007184
O        -0.203443    1.486043    0.006155
N        -0.934138   -0.649655   -0.023479
C        -2.337383   -0.296656    0.021305
H        -0.671745   -1.615824    0.059812
H        -2.498711    0.590221   -0.586782
H        -2.668785   -0.074614    1.037688
H        -2.928379   -1.119445   -0.375192
H         2.030445   -1.662699    0.468244
H         2.724336    0.687388    0.591548
