7
0 1
N         0.594343    0.006529    0.000001
Si        -1.263965    0.024954    0.000001
O         1.217651    1.048996   -0.000004
O         1.094814   -1.104369    0.000000
H        -1.679416    1.432551   -0.000007
H        -1.642593   -0.692306    1.223719
H        -1.642598   -0.692324   -1.223705
