13
0 2
Si        -1.840910   -0.001549    0.000000
C        -0.067899    0.617245    0.000000
C         0.979602   -0.500898    0.000000
H         0.076294    1.259161   -0.873453
C         2.405215    0.032535    0.000000
H         0.830752   -1.141131   -0.873150
H         0.830752   -1.141130    0.873150
H         2.591226    0.649534   -0.880914
H         3.133767   -0.779257    0.000000
H         0.076294    1.259161    0.873453
H         2.591226    0.649534    0.880913
H        -2.129540   -0.813741   -1.209522
H        -2.129539   -0.813740    1.209523
