13
0 2
Si        -0.652735   -0.673973    1.887054
C        -0.044427   -0.046757    0.146468
N         1.366525    0.495778    0.219007
O         2.103645   -0.164349    0.911605
O         1.629555    1.489951   -0.395002
N        -0.046977   -1.146063   -0.895488
O        -1.038286   -1.833906   -0.872244
O         0.898285   -1.243616   -1.626044
N        -0.931916    1.065771   -0.356168
O        -1.290616    1.045481   -1.499199
O        -1.191622    1.890937    0.487251
H        -0.071849   -2.016849    2.059489
H        -2.124416   -0.651376    1.820551
