8
0 1
H         1.625795    0.614303   -0.812290
H         1.625802    0.396311    0.938146
H         1.625796   -1.010615   -0.125860
C         1.236335    0.000000    0.000001
Si        -0.631144    0.000001    0.000001
H        -1.153134    1.375044    0.171225
H        -1.153135   -0.835818    1.105201
H        -1.153120   -0.539236   -1.276442
