10
0 2
Si         1.752134   -0.065296   -0.078837
C        -0.032047    0.443567   -0.004859
N        -0.947789   -0.432199   -0.003947
H        -0.286844    1.516166   -0.011427
C        -2.322765    0.001030    0.018417
H        -2.836566   -0.403559   -0.855290
H        -2.432074    1.092769    0.029925
H        -2.813744   -0.419289    0.897559
H         1.969672   -1.440718    0.410595
H         2.633073    0.926584    0.578640
