15
0 1
Si         0.016748    0.049556   -0.818396
N         1.046602   -1.124080    0.163641
N        -1.651300   -0.098546   -0.024516
O         0.711979   -1.618762    1.212380
O         2.139350   -1.261006   -0.371494
O        -2.100041    0.853064    0.587496
O        -2.215301   -1.163348   -0.178325
C         0.717707    1.733341   -0.609737
C         1.074513    2.108528    0.831475
H        -0.016480    2.432594   -1.019904
H         1.596454    1.791451   -1.257490
H         0.199338    2.069804    1.477620
H         1.474926    3.120454    0.867568
H         1.832509    1.440936    1.241091
H        -0.129542   -0.521434   -2.156105
