12
0 1
Si        -0.239652   -0.336689    0.000003
N         1.564573   -0.689743   -0.000014
O         2.342856    0.226201   -0.000028
C        -0.871639   -1.108788    1.556855
H        -0.448382   -0.620658    2.434458
H        -0.608375   -2.166730    1.589327
C        -0.871671   -1.108793   -1.556833
Cl        -0.579513    1.685682    0.000004
H        -0.608391   -2.166731   -1.589316
H        -0.448446   -0.620653   -2.434446
H        -1.957290   -1.022059   -1.610359
H        -1.957256   -1.022037    1.610412
