22
0 1
Si         2.102815    0.018938    0.454653
N         0.364025   -0.415092    0.283596
N        -0.364025    0.415089   -0.283600
Si        -2.102815   -0.018939   -0.454653
C        -2.489255   -1.691855    0.254464
H        -1.879289   -2.462897   -0.215711
H        -3.540054   -1.943366    0.101283
H        -2.282002   -1.715967    1.324607
C         2.489253    1.691856   -0.254460
H         2.282001    1.715970   -1.324603
H         3.540051    1.943368   -0.101277
H         1.879286    2.462896    0.215716
C         3.040245   -1.358357   -0.374686
H         2.845338   -1.367458   -1.448240
H         2.745717   -2.326172    0.031263
H         4.115094   -1.242037   -0.228876
C        -3.040243    1.358359    0.374684
H        -2.845334    1.367463    1.448238
H        -4.115092    1.242040    0.228876
H        -2.745714    2.326173   -0.031267
H         2.335734   -0.010745    1.918283
H        -2.335736    0.010742   -1.918283
