13
0 1
Si        -0.092561   -1.034034   -0.028915
N         1.245384    0.270593   -0.022206
O         1.009141    1.367222   -0.497324
O         2.318598   -0.058377    0.447202
C        -1.696069   -0.232146   -0.483321
C        -2.202699    0.787830    0.537938
H        -1.504865    1.618150    0.639061
H        -2.336032    0.337346    1.522572
H        -3.164242    1.199236    0.232053
H        -2.427235   -1.035636   -0.619750
H        -1.571797    0.235284   -1.462528
H        -0.052651   -1.572811    1.339511
H         0.405691   -2.004107   -1.017400
