9
0 1
Si         0.000000    0.585278    0.000000
N        -1.445909   -0.506589   -0.129216
N         1.445909   -0.506590    0.129216
O        -1.288485   -1.331101   -1.014280
O        -2.421908   -0.372490    0.567628
O         2.421908   -0.372489   -0.567627
O         1.288484   -1.331106    1.014277
F         0.066139    1.453103   -1.285116
F        -0.066138    1.453102    1.285118
