10
0 1
Si         0.100542    0.867538    0.069724
N         1.736806    0.056329   -0.237247
O         1.778261   -1.130305   -0.032742
C        -1.247410   -0.326782    0.467423
C        -2.305609   -0.484589   -0.317418
H        -1.177227   -0.930783    1.366761
H        -2.431526    0.084595   -1.231885
H        -3.095753   -1.189507   -0.085069
H        -0.186869    1.607383   -1.175188
H         0.418167    1.799136    1.171883
