13
0 2
Si        -0.000027    0.000008   -0.426116
C         1.649714    0.662483    0.176679
H         2.478086    0.045060   -0.171591
H         1.677299    0.673536    1.270543
H         1.821033    1.681347   -0.171555
C        -0.251103   -1.759916    0.176804
H         0.545572   -2.417723   -0.171472
H        -1.200031   -2.168613   -0.171342
H        -0.255213   -1.789271    1.270673
C        -1.398575    1.097422    0.176888
H        -1.278150    2.123541   -0.171367
H        -1.421800    1.115751    1.270754
H        -2.366624    0.736324   -0.171238
