20
0 1
C         2.537540   -0.525708   -0.266576
Si         1.742329    0.976466    0.618807
O         3.554519   -1.009339    0.139485
O         1.943265   -1.014614   -1.376726
N         0.204131    1.330860   -0.080598
C        -0.975143    0.582339    0.006356
H         0.081589    2.230263   -0.517552
H         1.125269   -0.529118   -1.552734
C        -0.990028   -0.665800    0.623602
C        -2.157290    1.070907   -0.544752
C        -3.320961    0.330042   -0.478127
C        -3.332830   -0.912006    0.135938
C        -2.160795   -1.400835    0.684491
H        -2.150358   -2.368301    1.168478
H        -0.089623   -1.071292    1.067760
H        -2.158556    2.041086   -1.027091
H        -4.228448    0.729054   -0.911730
H        -4.244518   -1.490453    0.185793
H         2.585882    2.157676    0.371198
H         1.672007    0.632537    2.049107
