8
0 2
Si         0.879611    0.000000   -0.128047
C        -0.786410   -0.777592    0.036192
C        -0.786410    0.777592    0.036192
H        -1.261367    1.237095   -0.821828
H        -1.056303    1.266230    0.965083
H        -1.056303   -1.266230    0.965083
H        -1.261367   -1.237095   -0.821828
H         1.757706    0.000000    1.071833
