9
0 1
Si        -0.066176   -0.951608    0.125866
N        -1.426248    0.265626   -0.083914
N         1.482985    0.044099    0.034599
O        -1.292583    1.427617   -0.370375
O        -2.488620   -0.320003    0.080964
O         2.205548   -0.064020   -0.935003
O         1.678456    0.770504    0.990332
H        -0.133774   -1.856315   -1.018230
H        -0.159324   -1.502041    1.473969
