19
0 1
C        -2.459409    1.243086   -0.017268
C        -1.076661    1.197489   -0.016917
C        -0.393006   -0.018790   -0.019445
Si         1.464220   -0.035983    0.012231
O         1.831196   -1.623520   -0.180460
N         2.250044    0.922556   -1.148506
H         2.131797    0.804299   -2.138945
H         2.663945    1.804510   -0.902275
C        -3.188675    0.064861   -0.022766
C        -2.529881   -1.152551   -0.028540
C        -1.145053   -1.192244   -0.026619
H        -0.635782   -2.146852   -0.035472
H        -2.970325    2.197171   -0.016113
H        -0.518595    2.126697   -0.020499
H        -4.270507    0.096935   -0.025042
H        -3.096395   -2.074736   -0.036025
H         2.759763   -1.845192   -0.275576
O         2.030949    0.601944    1.416515
H         1.545676    0.404537    2.219138
