11
0 1
Si         0.000001   -0.000003    0.258005
N         1.631296   -0.434289   -0.457329
N        -1.191761   -1.195601   -0.457309
N        -0.439546    1.629894   -0.457283
Cl         0.000012   -0.000021    2.228992
O        -1.209433    1.659422   -1.389243
O        -2.289281   -1.185651    0.060149
O         2.041617    0.217576   -1.389458
O        -0.832387   -1.876937   -1.389395
O         2.171482   -1.389709    0.060149
O         0.117984    2.575347    0.060113
