9
0 1
Si        -0.512603   -0.680045    0.000051
N         1.316755   -0.397253   -0.000029
O         1.645813    0.763285   -0.000083
C        -1.460457    0.911710   -0.000003
H        -1.219016    1.505622    0.881297
H        -2.534024    0.718536    0.000093
H        -1.219150    1.505485   -0.881432
H        -0.736164   -1.502321    1.207464
H        -0.736253   -1.502459   -1.207251
