15
0 2
N        -2.421719   -0.970056    0.100617
N        -1.771399   -0.184330   -0.452569
C        -1.002969    0.899253    0.258556
C         0.450890    0.857357   -0.161857
H        -1.130464    0.765676    1.334103
H        -1.474808    1.830488   -0.051635
C         1.181921   -0.397174    0.292556
H         0.944311    1.740718    0.252231
H         0.507708    0.948159   -1.249480
C         2.644564   -0.400342   -0.121271
H         0.682276   -1.276835   -0.119254
H         1.104983   -0.483198    1.380317
H         2.744997   -0.345989   -1.206764
H         3.149754   -1.306264    0.213392
H         3.176638    0.453381    0.302855
