16
0 1
N         0.000001   -0.825069    1.544985
Si         0.000000   -0.009084    0.024674
C        -0.000002    1.859041    0.173547
C        -1.544094   -0.534970   -0.883606
H        -1.615653   -0.042663   -1.855111
H        -1.554962   -1.613040   -1.047702
H        -2.442534   -0.273638   -0.320339
C         1.544095   -0.534966   -0.883607
H         2.442534   -0.273632   -0.320340
H         1.615652   -0.042660   -1.855112
H         1.554965   -1.613037   -1.047703
H        -0.829347   -0.866833    2.113849
H         0.829350   -0.866832    2.113848
H        -0.000003    2.337966   -0.808065
H         0.880716    2.211199    0.714170
H        -0.880721    2.211197    0.714171
