7
0 1
Si        -1.263965    0.024953    0.000001
N         0.594343    0.006529    0.000000
O         1.217650    1.048997   -0.000008
O         1.094815   -1.104368    0.000006
H        -1.679416    1.432551   -0.000034
H        -1.642592   -0.692283    1.223733
H        -1.642601   -0.692348   -1.223691
