18
0 1
C        -0.920678   -0.127117    0.000012
N         2.218482    0.281687   -0.000001
O         2.264354   -0.923166   -0.000041
C        -2.201153    0.715697    0.000019
H        -2.271966    1.353285   -0.883441
H        -2.271940    1.353309    0.883464
C        -0.886034   -1.005773    1.254040
H        -0.908206   -0.409423    2.168249
H         0.002659   -1.636021    1.279554
H        -1.760995   -1.661788    1.270132
H        -3.074986    0.058000    0.000041
C        -0.886068   -1.005806   -1.253994
H        -1.761026   -1.661826   -1.270040
H         0.002627   -1.636050   -1.279518
H        -0.908273   -0.409480   -2.168218
Si         0.536712    1.056456   -0.000020
H         0.578768    1.905586    1.210761
H         0.578767    1.905534   -1.210837
