15
0 1
Si        -0.331617   -0.000002    0.052465
N         1.240024    0.000029   -0.924231
O         2.261487    0.000009   -0.279043
C        -1.202595    1.542946   -0.516866
H        -1.300439    1.556358   -1.602814
H        -0.658898    2.439069   -0.215418
C         0.043497   -0.000091    1.870954
H         0.623204    0.879811    2.150748
H         0.623181   -0.880033    2.150667
H        -0.877542   -0.000106    2.456485
H        -2.204587    1.599808   -0.087956
C        -1.202622   -1.542881   -0.517011
H        -2.204612   -1.599770   -0.088101
H        -0.658935   -2.439041   -0.215655
H        -1.300472   -1.556185   -1.602960
