18
0 1
C         2.604610    0.570551   -0.189905
C         1.981309   -0.687416    0.398733
H         2.799575    0.444958   -1.257752
H         3.554855    0.802255    0.292360
H         1.951655    1.435968   -0.071616
C         0.677814   -1.111212   -0.282774
H         1.798179   -0.533637    1.465239
H         2.704128   -1.504189    0.330577
Si        -0.793500    0.003280   -0.038093
H         0.373040   -2.095247    0.086117
H         0.845068   -1.249894   -1.356526
O        -2.034827   -0.884668   -0.646953
N        -1.127165    0.464733    1.565107
H        -1.426001   -0.173823    2.280228
H        -0.857590    1.363253    1.924813
H        -2.912835   -0.502682   -0.581237
O        -0.618351    1.460286   -0.784390
H        -0.187891    1.477510   -1.640226
