11
0 1
Si        -0.000001    0.000000   -0.638569
N        -0.512901    1.603080    0.061059
N        -1.131867   -1.245731    0.061041
N         1.644769   -0.357352    0.061036
O         1.988512   -1.395623   -0.497221
O        -0.914929   -2.071940    0.903247
O         0.214423    2.419892   -0.497184
O        -2.202913   -1.024252   -0.497189
O        -1.336889    1.828315    0.903262
O         2.251798    0.243608    0.903268
H        -0.000007    0.000012   -2.087451
