16
0 2
C         0.337601    0.000000   -0.003348
C         0.681806   -0.000001    1.490483
H         0.289700   -0.882736    1.998042
H         0.289699    0.882734    1.998043
C         0.922893    1.251015   -0.660389
H         0.522974    2.165430   -0.218469
H         0.717176    1.278712   -1.731585
H         2.008976    1.270041   -0.530601
H         1.769058   -0.000001    1.620448
C         0.922894   -1.251014   -0.660390
H         2.008977   -1.270040   -0.530602
H         0.717176   -1.278711   -1.731587
H         0.522975   -2.165430   -0.218471
Si        -1.553557    0.000000   -0.181689
H        -2.144036    1.212051    0.445141
H        -2.144036   -1.212051    0.445140
