16
0 1
Si        -0.609400    0.000985    0.000002
N         1.270290    0.036623   -0.000001
O         1.866453    1.098492   -0.000012
O         1.821997   -1.052400    0.000003
C        -1.033797   -0.917311    1.550529
H        -0.686297   -0.382635    2.435025
H        -0.578011   -1.906870    1.547081
C        -1.033795   -0.917326   -1.550517
H        -2.115329   -1.038106   -1.635747
H        -0.578009   -1.906885   -1.547059
H        -0.686293   -0.382658   -2.435017
C        -1.150611    1.768441   -0.000007
H        -0.779357    2.291971    0.880502
H        -2.240825    1.829598   -0.000007
H        -0.779357    2.291962   -0.880522
H        -2.115331   -1.038091    1.635758
