12
0 1
Si        -0.081403    0.555285    0.540693
N        -1.368065   -0.590310   -0.117967
N         1.500578   -0.278430    0.061818
O        -1.140170   -1.537403   -0.830623
O        -2.477217   -0.219927    0.243393
O         2.124573    0.161143   -0.885276
O         1.824036   -1.237938    0.733774
C        -0.242630    2.166827   -0.305337
H        -0.127705    2.043441   -1.381546
H         0.532050    2.850670    0.043093
H        -1.218853    2.602734   -0.093523
H        -0.167428    0.482392    1.997188
