13
0 2
Si         1.421268   -0.000001   -0.135749
C        -0.398532    0.000000    0.366402
C        -1.122314    1.262245   -0.097582
H        -1.164590    1.312375   -1.187589
H        -0.631156    2.169502    0.256676
C        -1.122316   -1.262244   -0.097583
H        -2.150592    1.275859    0.270950
H        -0.381278   -0.000001    1.463684
H        -2.150594   -1.275858    0.270950
H        -1.164594   -1.312372   -1.187590
H        -0.631158   -2.169502    0.256672
H         2.117588    1.213214    0.364648
H         2.117591   -1.213208    0.364662
