18
0 1
Si         0.302906    0.225752   -0.899902
N        -0.071940    1.609648    0.261619
N         1.612733   -0.761272   -0.032999
O         0.204096    1.637667    1.435285
O        -0.723533    2.458311   -0.335713
O         2.598594   -0.132975    0.298321
O         1.459449   -1.958803    0.117248
C        -1.241250   -0.732039   -1.189645
C        -2.248007   -0.786357   -0.032540
H        -0.924587   -1.742063   -1.467573
H        -1.707457   -0.295954   -2.077168
C        -1.717356   -1.464420    1.221297
H        -3.131815   -1.319030   -0.387163
H        -2.582643    0.225856    0.203927
H        -1.356034   -2.469940    1.005497
H        -2.501243   -1.539046    1.974116
H        -0.893426   -0.909018    1.672425
H         1.001805    0.813330   -2.041574
