12
0 2
N         0.947681    0.000000    0.414189
F         1.685099   -1.095038   -0.039152
F         1.685099    1.095037   -0.039153
Si        -0.670018    0.000000   -0.439066
C        -1.476184    1.563508    0.176641
H        -1.519629    1.559645    1.268108
H        -2.493328    1.639744   -0.208642
H        -0.922584    2.444969   -0.143142
C        -1.476184   -1.563508    0.176641
H        -1.519628   -1.559645    1.268108
H        -0.922584   -2.444969   -0.143142
H        -2.493328   -1.639744   -0.208642
