8
0 2
N         0.896549   -1.042788    0.071146
C         0.093621    0.071003   -0.021406
H         1.785098   -0.855141   -0.399290
C        -1.383207   -0.159400   -0.015693
H        -1.655306   -0.876622   -0.790587
H        -1.904836    0.780470   -0.172902
H        -1.675837   -0.590170    0.942252
O         0.614069    1.171420    0.018138
