16
0 1
Si         1.758283   -0.496676    0.199057
N         0.021887   -0.879136    0.006578
N        -0.698749    0.054159   -0.346690
C        -2.114662   -0.292168   -0.477259
C        -2.929865    0.554430    0.483232
H        -2.249338   -1.361881   -0.300375
H        -2.390448   -0.055837   -1.507846
H        -2.672663    0.319245    1.516320
H        -3.994020    0.365523    0.345688
H        -2.743237    1.615212    0.317621
C         2.182888    1.273920   -0.163612
H         1.919507    1.534185   -1.188517
H         3.252237    1.443922   -0.028548
H         1.640639    1.946623    0.500480
H         2.455768   -1.430476   -0.711117
H         2.073469   -0.865298    1.596112
