17
0 1
Si        -0.040398   -0.004090    0.255059
N         1.673794   -0.541573    0.616848
N        -0.582183   -1.091447   -1.118675
N         0.170051    1.638411   -0.533333
C        -1.150601   -0.027090    1.703143
O         1.224464    2.109710   -0.873313
O        -0.636506   -0.767724   -2.277227
O         2.309654   -1.325207   -0.039603
O        -0.857071   -2.192280   -0.658987
O         2.058689    0.047921    1.618772
O        -0.932685    2.152595   -0.672082
C        -2.644679    0.007553    1.366951
H        -0.861443    0.821676    2.327550
H        -0.894899   -0.926583    2.268655
H        -2.906642    0.905925    0.811635
H        -3.225360   -0.003658    2.287582
H        -2.938396   -0.860742    0.778828
