17
0 1
C         0.061801   -0.192356    0.098563
C        -0.830540   -1.241652   -0.109172
C        -2.194190   -1.015197   -0.195283
C        -2.688278    0.272866   -0.079587
C        -1.816195    1.330802    0.120865
C        -0.454934    1.097882    0.209864
N         2.762100    0.768418   -0.484542
H        -2.871519   -1.843476   -0.357679
H        -3.753027    0.453611   -0.149660
H        -2.199570    2.339148    0.208237
H         0.220875    1.930922    0.360363
H        -0.454882   -2.253061   -0.212044
Si         1.891515   -0.511368    0.252781
H         2.622383    1.018056   -1.449437
H         3.680715    1.021632   -0.163074
H         2.127334   -1.863947   -0.317581
H         2.345787   -0.536736    1.662245
