20
0 2
C        -0.193958    0.000000   -0.171335
C        -0.914043   -1.194746   -0.092448
C        -2.288005   -1.197364    0.068164
C        -2.979898    0.000001    0.148994
C        -2.288004    1.197365    0.068168
C        -0.914042    1.194746   -0.092444
H        -2.821757   -2.136791    0.131641
H        -4.054615    0.000001    0.274523
H        -2.821755    2.136792    0.131648
H        -0.393728    2.142772   -0.152611
H        -0.393730   -2.142772   -0.152618
Si         1.652658   -0.000001   -0.427253
C         2.434111   -1.546208    0.291890
H         2.046799   -2.453079   -0.171668
H         2.242731   -1.608697    1.366558
H         3.513833   -1.534415    0.140976
C         2.434112    1.546208    0.291884
H         2.242729    1.608703    1.366552
H         2.046801    2.453078   -0.171679
H         3.513833    1.534414    0.140972
