7
0 1
Si         0.608037    0.000000    0.000245
N        -1.075336    0.000000   -0.577116
F         1.271593    1.283413   -0.583069
F         0.705487   -0.000001    1.556268
F         1.271593   -1.283412   -0.583071
F        -1.679068   -1.096795    0.029179
F        -1.679068    1.096795    0.029179
