13
0 2
Si        -0.000038   -0.000033   -0.426097
C        -1.541000   -0.886368    0.176979
C         0.002889    1.777753    0.176671
H         0.003275    1.807514    1.270537
H         0.885269    2.314999   -0.171863
H        -0.878010    2.317760   -0.171337
C         1.538154   -0.891346    0.176701
H         1.562285   -1.924165   -0.171732
H         1.563777   -0.906449    1.270564
H         2.446224   -0.398455   -0.171393
H        -1.566667   -0.900999    1.270850
H        -1.568357   -1.919226   -0.171097
H        -2.447527   -0.390756   -0.171274
