16
0 1
N         2.154377    0.407200   -0.219685
Si         0.829086   -0.601190    0.201847
H         2.899054    0.580908    0.432604
H         2.457745    0.532641   -1.170467
C        -0.805316    0.110959   -0.380641
C        -1.957444   -0.843872   -0.069145
H        -2.075088   -0.978934    1.008897
H        -1.803332   -1.830067   -0.509860
C        -1.059238    1.501311    0.198224
H        -2.903977   -0.454332   -0.450719
H        -0.726418    0.203181   -1.471046
H        -1.984328    1.928596   -0.196299
H        -1.158523    1.458705    1.285653
H        -0.244572    2.188339   -0.031105
H         0.847522   -0.697283    1.681743
H         0.936067   -1.975876   -0.358087
