15
0 1
N        -1.336231   -0.736925    0.380056
F        -2.420140    0.119756    0.655158
F        -1.701073   -1.327588   -0.827148
Si         0.000000    0.438852    0.000000
C         0.336872    1.374421    1.543998
H        -0.478142    2.066340    1.756043
H         1.258848    1.947115    1.439642
H         0.447030    0.697024    2.389681
C        -0.336872    1.374421   -1.543998
H        -1.258849    1.947114   -1.439642
H        -0.447029    0.697024   -2.389681
H         0.478141    2.066341   -1.756042
N         1.336231   -0.736925   -0.380056
F         2.420139    0.119756   -0.655158
F         1.701074   -1.327589    0.827148
