13
0 2
Si        -1.840910   -0.001549    0.000000
C        -0.067899    0.617245   -0.000003
C         0.979602   -0.500898    0.000002
H         0.076294    1.259164    0.873448
H         0.076294    1.259157   -0.873458
C         2.405215    0.032535    0.000000
H         0.830752   -1.141134   -0.873146
H         0.830752   -1.141127    0.873155
H         2.591226    0.649531   -0.880916
H         3.133767   -0.779257    0.000003
H         2.591226    0.649538    0.880911
H        -2.129539   -0.813748   -1.209518
H        -2.129540   -0.813733    1.209527
