13
0 1
N        -0.683418    1.528177   -0.216696
Si         0.000033    0.057269    0.357882
H        -0.442350    2.414560    0.193020
H        -0.986576    1.634686   -1.170329
C        -1.103463   -1.348875   -0.173059
H        -1.174245   -1.398262   -1.262054
C         1.743999   -0.276092   -0.230647
H         1.781168   -0.372861   -1.317770
H         2.134488   -1.200697    0.199944
H         2.417042    0.534251    0.053873
H        -2.111677   -1.228588    0.223183
H        -0.712205   -2.307293    0.171861
H         0.034593    0.175006    1.837024
