12
0 1
Si         0.421799    1.094086   -0.575366
Si        -0.421799   -1.094086   -0.575366
N         0.421799    1.573979    1.080869
H        -0.345246    1.298814    1.672903
H         0.817846    2.451691    1.374978
N        -0.421799   -1.573979    1.080869
H         0.345246   -1.298814    1.672903
H        -0.817846   -2.451691    1.374978
H        -0.372761    1.960613   -1.488926
H         1.817728    1.161074   -1.069919
H         0.372761   -1.960613   -1.488926
H        -1.817728   -1.161074   -1.069919
