16
0 1
Si         0.152846    0.572391   -0.651758
N        -1.261256   -0.464055    0.016560
O        -2.103237    0.058332    0.723952
O        -1.279452   -1.638225   -0.312292
C         1.657720   -0.502753   -0.523260
C         2.017428   -0.922214    0.903042
H         2.488781    0.041944   -0.982365
H         1.487497   -1.382479   -1.146493
H         1.214325   -1.502638    1.358067
H         2.210700   -0.060211    1.542814
C         0.181620    2.122036    0.352737
H         0.963008    2.792534   -0.009805
H         0.376048    1.906415    1.403167
H        -0.774520    2.639075    0.288362
H         2.913061   -1.542903    0.913022
H        -0.269047    0.799900   -2.046455
