12
0 1
N        -0.157023   -0.707991   -0.000017
Si        -1.779795   -0.046419    0.000007
C         0.905982    0.149608   -0.000013
H         0.031740   -1.696646   -0.000029
C         2.280330   -0.464599    0.000009
H         2.416316   -1.091849    0.881997
H         3.024385    0.325563   -0.000243
H         2.416182   -1.092312   -0.881669
O         0.715502    1.348624   -0.000005
H        -2.032053    0.752351   -1.211168
H        -2.032025    0.752327    1.211202
H        -2.650149   -1.242675    0.000004
