20
0 1
Si         1.134672    0.000000   -0.481058
C         0.004273   -1.486109   -0.531576
C        -1.206207   -1.285170    0.390777
C        -1.984474    0.000000    0.108182
C        -1.206207    1.285170    0.390778
C         0.004273    1.486109   -0.531576
N         1.974943    0.000000    1.024781
H         2.447938   -0.828304    1.347690
H         2.447939    0.828303    1.347689
H         0.538163   -2.403431   -0.270252
H        -0.337177   -1.619663   -1.563297
H        -0.870192   -1.268494    1.431323
H        -1.883704   -2.137845    0.300776
H        -2.893826    0.000000    0.713317
H        -2.313097    0.000000   -0.937306
H        -0.870192    1.268494    1.431324
H        -1.883704    2.137844    0.300776
H        -0.337177    1.619663   -1.563297
H         0.538163    2.403431   -0.270252
H         2.036906    0.000000   -1.666661
