11
0 1
Si         0.000013    0.000020    0.433562
N        -1.160615   -1.241589   -0.218992
N        -0.494909    1.625855   -0.219238
N         1.655473   -0.384340   -0.219284
F         0.000074    0.000113    1.981642
O         2.084920    0.257939   -1.149126
O         0.040800    2.559026    0.344003
O        -0.819013   -1.935437   -1.148199
O        -1.266727    1.676982   -1.148322
O        -2.236514   -1.244481    0.344427
O         2.196474   -1.314124    0.344460
