14
0 2
C        -1.585191    1.198904    0.006777
C        -0.202571    1.197906   -0.007838
C        -2.279938    0.000000    0.013982
C        -1.585191   -1.198903    0.006776
C        -0.202572   -1.197906   -0.007838
C         0.516597    0.000000   -0.008942
H         0.326331    2.143475   -0.010891
H        -2.123906    2.137360    0.014284
H        -2.123907   -2.137359    0.014284
H        -3.361840    0.000000    0.025893
H         0.326331   -2.143475   -0.010892
Si         2.366053    0.000000   -0.079516
H         2.932721   -1.225022    0.531529
H         2.932720    1.225025    0.531520
