13
0 2
Si         1.840910   -0.001549    0.000000
C         0.067899    0.617245   -0.000006
C        -0.979602   -0.500898    0.000004
H        -0.076294    1.259153   -0.873465
H        -0.076294    1.259169    0.873441
C        -2.405215    0.032535    0.000000
H        -0.830752   -1.141122    0.873160
H        -0.830752   -1.141138   -0.873140
H        -2.591226    0.649542    0.880908
H        -3.133767   -0.779257    0.000007
H        -2.591226    0.649526   -0.880919
H         2.129541   -0.813724    1.209533
H         2.129538   -0.813757   -1.209512
