20
0 1
C        -0.945893    0.076600   -0.423750
C        -0.358793    1.319383   -0.229146
C         0.997890    1.415121   -0.009102
C        -0.164790   -1.060125   -0.401690
C         1.203099   -0.969382   -0.180520
C         1.788922    0.271332    0.017963
H        -0.627767   -2.023837   -0.565220
H         1.793429   -1.872728   -0.169533
O         3.114132    0.468292    0.240647
C         3.958030   -0.658388    0.273313
H         4.960010   -0.282699    0.461741
H         3.947660   -1.193510   -0.680138
H         3.675209   -1.346789    1.074383
H        -0.976845    2.206490   -0.258481
H         1.471620    2.375128    0.142583
O        -2.293248   -0.012759   -0.673126
Si        -3.449279   -0.217281    0.481689
H        -4.734528   -0.254914   -0.236768
H        -3.426040    0.904706    1.446037
H        -3.230693   -1.481425    1.219167
