17
0 2
C        -0.587571   -0.063698   -0.000001
C         0.064886    1.182974    0.000000
C         1.425464    1.255277    0.000000
C         0.170261   -1.252798   -0.000002
C         1.528305   -1.211908   -0.000003
C         2.232613    0.053300   -0.000003
H        -0.367448   -2.190466   -0.000002
H         2.131350   -2.109589   -0.000003
O         3.469373    0.109430    0.000001
H        -0.517418    2.093549    0.000001
C        -2.074103   -0.180021    0.000000
O        -2.593439   -1.272171    0.000004
C        -2.905042    1.074618    0.000003
H         1.951384    2.200087    0.000001
H        -2.689788    1.682698   -0.879795
H        -2.689785    1.682695    0.879802
H        -3.954640    0.796493    0.000005
