8
0 1
Si        -0.000034    0.000551    0.327537
O         0.005845    1.568792   -0.136654
O         1.268581   -0.837824   -0.258467
H         0.006380    1.773294   -1.074558
H         2.153787   -0.544289   -0.038296
O        -1.274676   -0.828467   -0.258700
H        -2.157737   -0.529335   -0.037459
H         0.000043    0.072616    1.795352
