9
0 2
Si         0.063046   -0.012101   -0.396564
O         0.559204    1.442363    0.185606
C        -1.708351   -0.187306    0.160795
H        -2.134845   -1.133997   -0.169496
H        -2.317255    0.624600   -0.235723
H        -1.740170   -0.148291    1.251993
H         1.501543    1.623581    0.201667
O         1.051134   -1.153690    0.280056
H         1.175486   -1.982022   -0.186620
