16
0 1
C         2.730017   -0.471673    0.294751
C         2.022459    0.715985    0.260937
C         0.674092    0.709903   -0.046632
C         2.086167   -1.665500    0.016910
C         0.738732   -1.671145   -0.292163
C         0.019788   -0.486161   -0.324865
H         3.784028   -0.460443    0.534864
H         2.508030    1.658111    0.471923
Cl        -0.206408    2.198541   -0.090972
H         2.634058   -2.597609    0.037672
H         0.220352   -2.592146   -0.521938
O        -1.293800   -0.491915   -0.664705
Si        -2.575975   -0.707902    0.355731
H        -3.774392   -0.430748   -0.451721
H        -2.480483    0.207399    1.510116
H        -2.596130   -2.102263    0.849376
