18
0 1
C        -1.687841    1.389584   -0.000004
C        -1.272568    0.076341   -0.000002
C         0.059052   -0.292162   -0.000001
C        -0.713381    2.374379   -0.000004
C         0.626583    2.041905   -0.000003
C         1.017668    0.707546   -0.000001
H        -1.005495    3.415295   -0.000005
H         1.394035    2.803254   -0.000003
O         2.343371    0.442487    0.000002
Si         3.128251   -1.016508    0.000002
H         0.315958   -1.340781    0.000002
H        -2.740620    1.622217   -0.000004
N        -2.286201   -0.991586    0.000001
O        -3.451464   -0.660519    0.000001
O        -1.894111   -2.139072    0.000003
H         4.558614   -0.676865    0.000002
H         2.762978   -1.789820   -1.204529
H         2.762978   -1.789819    1.204534
