16
0 1
Si        -0.514039    0.675094    0.431087
O         0.959608   -0.138484    0.707531
N         1.676553   -0.450086   -0.439760
O         2.670365   -1.005459   -0.193574
C        -1.641665   -0.402971   -0.581643
C        -0.179958    2.313642   -0.371151
H        -1.105331    2.881864   -0.481317
H         0.254949    2.182919   -1.362740
H         0.510165    2.909150    0.227113
C        -1.920800   -1.775925    0.031040
H        -1.205083   -0.512784   -1.578279
H        -2.578538    0.144565   -0.725930
H        -1.001932   -2.349174    0.157711
H        -2.591042   -2.363276   -0.596946
H        -2.385046   -1.686174    1.014208
H        -1.022711    0.835269    1.808155
