12
0 2
N         0.000003    1.621722    0.231013
C        -1.550546   -0.833710    0.183548
C         1.550543   -0.833715    0.183548
Si         0.000000    0.024414   -0.431963
H        -1.545001   -0.885877    1.275346
H        -1.614123   -1.848736   -0.209638
H        -2.451211   -0.302898   -0.127131
H        -0.828463    2.192876    0.175325
H         0.828474    2.192870    0.175330
H         1.544999   -0.885881    1.275346
H         2.451209   -0.302908   -0.127133
H         1.614115   -1.848742   -0.209637
