7
0 2
Si         1.563193   -0.124013   -0.000002
C        -0.041443    0.858570   -0.000003
Cl        -1.451658   -0.263140    0.000003
H        -0.133841    1.486367   -0.882373
H        -0.133839    1.486373    0.882363
H         1.654906   -0.957294    1.219594
H         1.654903   -0.957304   -1.219591
