24
0 1
C         1.442825   -0.039433    0.033291
O         0.102054   -0.346638    0.413009
C         1.864634   -0.982820   -1.085323
C         2.289460   -0.270372    1.274257
H         3.343183   -0.079674    1.068053
H         2.180369   -1.300006    1.613457
H         1.965565    0.390406    2.078093
C         1.547567    1.411751   -0.418174
H         2.579879    1.661539   -0.664181
H         1.211887    2.081834    0.373291
H         0.940678    1.590070   -1.307186
Si        -1.347194   -0.048628   -0.296158
H         1.759270   -2.017501   -0.759662
H         2.904856   -0.811479   -1.364439
H         1.245328   -0.835104   -1.970050
C        -2.490620   -1.403536    0.258584
H        -2.118075   -2.379572   -0.053188
H        -3.489402   -1.270920   -0.161047
H        -2.579190   -1.409674    1.346139
C        -2.019519    1.619822    0.192577
H        -2.101253    1.700332    1.277980
H        -3.014733    1.770312   -0.230974
H        -1.382550    2.432037   -0.157908
H        -1.207617   -0.081170   -1.777520
