11
0 1
O        -0.028334   -0.725264    0.063212
C         0.806987    0.257210   -0.185758
Si        -1.688796   -0.591254   -0.300967
O         0.542149    1.315520   -0.653518
Cl         2.438102   -0.183308    0.272381
C        -2.472628    0.732401    0.722004
H        -2.317566    0.549836    1.785779
H        -3.548597    0.754070    0.538566
H        -2.062832    1.709807    0.471063
H        -2.181908   -1.935575    0.040810
H        -1.810367   -0.344058   -1.748196
