13
0 2
Si         0.000034    0.000045   -0.426086
C         1.387234   -1.111752    0.176773
H         2.358934   -0.760536   -0.171292
H         1.256308   -2.136532   -0.171630
C         0.269153    1.757236    0.176995
H         0.273639    1.786481    1.270866
H        -0.520805    2.423155   -0.171175
H         1.222165    2.156273   -0.171200
C        -1.656426   -0.645542    0.176571
H        -1.838137   -1.662561   -0.171793
H        -2.478423   -0.019647   -0.171679
H        -1.684194   -0.656449    1.270431
H         1.410271   -1.130476    1.270639
