10
0 1
Si        -1.195692   -0.523438   -0.000019
O        -1.567421    1.082551    0.000025
H        -0.811779    1.678722    0.000004
Si         1.152704   -0.576499    0.000019
O         1.452961    1.060097   -0.000027
H         2.355596    1.383490    0.000001
H         1.760464   -1.220100   -1.190808
H         1.760425   -1.220022    1.190907
H        -1.773574   -1.182043   -1.193405
H        -1.773622   -1.182107    1.193307
