12
0 2
C         1.102227    1.108382    0.000000
C         1.149466   -0.289123    0.000000
C         0.034714   -1.060962    0.000000
C        -0.138292    1.750837    0.000000
C        -1.295766    1.023558    0.000000
C        -1.262020   -0.423133    0.000001
H         2.029012    1.664471    0.000000
F         2.360516   -0.864405   -0.000002
H         0.086456   -2.139930   -0.000001
H        -0.171146    2.831723    0.000000
H        -2.270596    1.490355    0.000000
O        -2.307543   -1.090541    0.000001
