19
0 2
Si         1.810718   -0.886743    0.518536
C         0.103869   -0.167255    0.044822
C         0.322563    0.867836   -1.051059
O         1.353735    1.746501   -0.612300
H         0.611779    0.361641   -1.977443
H        -0.598962    1.420914   -1.240535
H         1.505980    2.421000   -1.278782
C        -0.515573    0.473493    1.279166
C        -0.772755   -1.314333   -0.481758
O        -1.850496    0.892800    0.976543
H         0.083457    1.332871    1.587760
H        -0.539488   -0.250425    2.101125
H        -2.227705    1.338893    1.738614
O        -1.951503   -0.875872   -1.125935
H        -1.009934   -1.991972    0.347145
H        -0.227318   -1.894417   -1.228653
H        -2.398763   -0.276243   -0.514753
H         2.592210   -1.154088   -0.712448
H         1.616172   -2.159656    1.264973
