12
0 1
C        -2.142252   -0.126032    0.000002
O        -0.790938   -0.526106   -0.000003
H        -2.764855   -1.019638    0.000001
H        -2.382503    0.465331   -0.888548
H        -2.382498    0.465326    0.888556
Si         0.475372    0.518752    0.000000
C         2.030766   -0.486342    0.000000
H         2.080507   -1.123518    0.883226
H         2.907175    0.163947    0.000000
H         2.080506   -1.123519   -0.883224
H         0.401438    1.396318    1.196659
H         0.401442    1.396322   -1.196657
