13
0 2
C        -0.514210    1.381654    0.000000
C        -0.894669    0.027340    0.000000
C         0.054849   -0.962706    0.000000
C         0.835501    1.736288    0.000001
C         1.805363    0.772985    0.000001
C         1.457748   -0.627043    0.000000
H         1.105191    2.783555    0.000001
H         2.858731    1.017079    0.000002
O         2.327400   -1.514225    0.000000
H        -1.280318    2.144016   -0.000001
H        -0.212305   -2.009864    0.000000
C        -2.288226   -0.306947   -0.000001
N        -3.404091   -0.564343   -0.000001
