7
0 2
Si         1.563193   -0.124013    0.000000
C        -0.041443    0.858570   -0.000001
Cl        -1.451658   -0.263140    0.000001
H        -0.133840    1.486369   -0.882369
H        -0.133839    1.486371    0.882367
H         1.654905   -0.957298    1.219593
H         1.654904   -0.957300   -1.219592
