13
0 1
Si        -0.365701    0.021377    0.355843
O         0.892987   -0.826033   -0.374359
O         2.111009   -0.134487   -0.027791
H         2.594511   -0.836867    0.425723
C        -0.389913    1.788647   -0.204632
H         0.548381    2.284647    0.042289
H        -1.200013    2.334612    0.282959
H        -0.536664    1.854748   -1.283535
C        -1.871790   -0.928871   -0.167451
H        -1.989502   -0.909670   -1.251467
H        -2.767863   -0.491070    0.276334
H        -1.814145   -1.969839    0.150693
H        -0.176632   -0.040332    1.824890
