17
0 1
O        -0.096600    0.023823   -1.074009
O         1.105493    0.663846   -0.662550
C         1.988828   -0.195632   -0.101654
O         1.739090   -1.324068    0.205463
C         3.306979    0.493488    0.066351
H         3.206439    1.574380    0.020875
H         3.964034    0.167634   -0.740434
H         3.746499    0.185829    1.011557
Si        -1.310137    0.059743    0.101927
O        -1.742514    1.575061    0.502324
C        -2.698974   -0.773111   -0.761917
H        -2.400670   -1.755185   -1.127550
H        -3.041099   -0.178343   -1.608480
H        -3.535980   -0.901666   -0.075116
H        -1.320254    1.983022    1.260527
O        -0.736956   -0.661729    1.443835
H        -0.006158   -1.276007    1.294454
