21
0 1
Si        -0.212893   -0.453698    0.006853
O        -0.818871    0.838360   -0.825836
C         1.318257    0.067648    0.952528
C         0.184121   -1.722623   -1.291910
H         0.614713   -2.621451   -0.846628
H         0.896501   -1.330992   -2.018621
H        -0.716603   -2.014129   -1.833564
C        -1.485806   -1.099716    1.211429
H        -1.110883   -1.980354    1.736755
H        -2.404594   -1.385249    0.696775
H        -1.742770   -0.355184    1.967058
C         2.425591    0.666978    0.085352
H         1.695982   -0.803342    1.497409
H         1.020345    0.783455    1.725290
H         2.791099   -0.053861   -0.647468
H         3.281008    0.986318    0.682385
H         2.068094    1.535086   -0.470497
C        -1.239961    2.045028   -0.240778
H        -1.578952    2.713269   -1.031920
H        -0.425593    2.538727    0.299022
H        -2.070083    1.888707    0.455025
