17
0 2
Si        -0.642103   -1.381960    0.000000
C         0.113603   -0.520178    1.490888
C         0.113603    1.004099    1.284124
H         1.142868   -0.867704    1.617670
H        -0.417253   -0.784521    2.406806
C         0.113603   -0.520178   -1.490888
C         0.113603    1.004099   -1.284124
H        -0.417253   -0.784521   -2.406806
H         1.142868   -0.867704   -1.617670
C         0.809401    1.451676    0.000000
H        -0.917479    1.370761   -1.272604
H         0.597211    1.484406   -2.138823
H         0.878387    2.541697    0.000000
H         1.839819    1.079772    0.000000
H         0.597211    1.484406    2.138823
H        -0.917479    1.370761    1.272604
H        -2.122331   -1.197017    0.000000
