8
0 1
C         1.294419    0.373963    0.000000
O         1.558594   -0.791812    0.000014
O         0.054981    0.861387   -0.000012
H         2.040763    1.177465   -0.000013
Si        -1.270211   -0.190357   -0.000001
H        -2.423179    0.724006   -0.000012
H        -1.254875   -1.018413    1.216610
H        -1.254873   -1.018440   -1.216593
