17
0 1
C        -1.966274   -0.043715   -0.000002
C        -1.457427    1.253744    0.000002
C        -0.097481    1.464971    0.000000
C        -1.090907   -1.123156   -0.000007
C         0.273315   -0.913563   -0.000010
C         0.774520    0.382513   -0.000006
H        -1.483476   -2.130224   -0.000010
H         0.944937   -1.761557   -0.000015
O         2.097982    0.649324   -0.000008
Si         3.393528   -0.381902    0.000011
H        -2.137781    2.093696    0.000006
H         0.314439    2.464020    0.000002
C        -3.378470   -0.263269    0.000001
N        -4.511158   -0.439181    0.000002
H         4.575729    0.491558    0.000019
H         3.363699   -1.238171   -1.203839
H         3.363671   -1.238160    1.203867
