8
0 2
C        -1.180517   -0.194528    0.000000
C         0.177830    0.477335   -0.000011
H        -1.293354   -0.822908   -0.883157
H        -1.980316    0.547822    0.000116
H        -1.293251   -0.823104    0.883028
O         1.247592   -0.363311   -0.000016
H         0.301197    1.153777    0.864804
H         0.301108    1.154061   -0.864599
