13
0 2
Si        -1.840910   -0.001549    0.000000
C        -0.067899    0.617245   -0.000024
C         0.979602   -0.500898    0.000017
H         0.076293    1.259193    0.873406
H         0.076295    1.259129   -0.873501
C         2.405215    0.032535   -0.000001
H         0.830752   -1.141162   -0.873110
H         0.830751   -1.141099    0.873190
H         2.591226    0.649503   -0.880937
H         3.133767   -0.779257    0.000028
H         2.591225    0.649566    0.880890
H        -2.129533   -0.813807   -1.209480
H        -2.129546   -0.813675    1.209565
