17
0 1
C        -2.082548    1.083779    0.000002
C        -1.582553   -0.211064   -0.000001
C        -0.210782   -0.447308   -0.000005
C        -1.194293    2.145214    0.000003
C         0.168325    1.924072    0.000000
C         0.664216    0.626040   -0.000004
H        -1.570494    3.158981    0.000007
H         0.871749    2.744921    0.000000
O         2.007841    0.468998   -0.000007
Si         2.915772   -0.914917    0.000004
H        -3.149786    1.249583    0.000006
H         0.153564   -1.465292   -0.000007
C        -2.483188   -1.324478    0.000002
N        -3.202120   -2.216559   -0.000001
H         4.311996   -0.454785    0.000007
H         2.619620   -1.719085   -1.203781
H         2.619610   -1.719073    1.203794
