7
0 2
O         0.808749   -1.028137    0.001490
C         0.100018    0.000012   -0.007634
O         0.808816    1.028101    0.001490
C        -1.383179    0.000039   -0.003111
H        -1.757158   -0.894746   -0.496812
H        -1.757155    0.896142   -0.494405
H        -1.727244   -0.001415    1.031846
