19
0 1
C        -0.022254    1.485148   -0.521793
C         1.210237    1.284862    0.372318
Si        -1.154375    0.003825   -0.428534
H         0.295056    1.605420   -1.563577
H        -0.544532    2.408127   -0.257108
C         1.979086   -0.001997    0.072804
H         0.899561    1.270785    1.421365
H         1.886026    2.136792    0.266585
C        -0.032442   -1.475132   -0.529740
C         1.200921   -1.284685    0.365850
H         2.899195   -0.006590    0.661201
H         2.288318    0.000097   -0.978494
H         0.285420   -1.596834   -1.570624
H        -0.568388   -2.387407   -0.260796
H         0.888256   -1.275570    1.413961
H         1.870750   -2.140576    0.255122
O        -1.916316   -0.092311    1.036896
H        -2.555353    0.579940    1.276536
H        -2.165817    0.041559   -1.516496
