14
0 2
C        -0.000019    1.374655   -0.577586
C         0.000000   -0.024825    0.077038
H        -0.887029    1.933062   -0.285392
H         0.886976    1.933087   -0.285391
O        -0.000004    0.265312    1.421247
C         1.265524   -0.787491   -0.310214
H         1.294200   -1.749346    0.201868
H         2.149664   -0.219657   -0.023982
H         1.295235   -0.971879   -1.384710
C        -1.265502   -0.787526   -0.310215
H        -2.149657   -0.219716   -0.023983
H        -1.294152   -1.749381    0.201867
H        -1.295207   -0.971914   -1.384711
H        -0.000016    1.244370   -1.659686
