15
0 1
Si        -0.468236    0.063617    0.330113
O        -0.443786    1.578304   -0.332906
H        -1.045450    2.246113   -0.002378
C         1.060003   -0.789592   -0.299598
C         2.365413   -0.081955    0.063855
H         0.970824   -0.880433   -1.386336
H         1.061588   -1.813338    0.087355
H         2.489754   -0.010482    1.145808
H         2.383322    0.932666   -0.334149
C        -2.016501   -0.859959   -0.138361
H        -2.095605   -0.967766   -1.221304
H        -2.911295   -0.343794    0.213697
H        -2.018906   -1.859094    0.302085
H         3.233425   -0.611064   -0.331649
H        -0.415560    0.179156    1.813168
