14
0 2
C         0.000000   -0.024825    0.077038
O        -0.000004    0.265312    1.421247
C         1.265522   -0.787495   -0.310214
H         1.295233   -0.971883   -1.384710
H         1.294196   -1.749349    0.201868
H         2.149663   -0.219663   -0.023982
C        -1.265505   -0.787523   -0.310215
H        -1.294157   -1.749378    0.201867
H        -1.295210   -0.971911   -1.384711
H        -2.149658   -0.219710   -0.023983
C        -0.000015    1.374655   -0.577586
H        -0.000013    1.244370   -1.659686
H         0.886981    1.933085   -0.285391
H        -0.887024    1.933065   -0.285392
