17
0 2
C         0.438620    1.490857   -0.301786
C        -0.972566    1.284085    0.274380
Si         1.522216    0.000000    0.072048
H         0.883974    2.406796    0.089752
H         0.371291    1.617577   -1.386056
C        -1.649971    0.000000   -0.200597
H        -1.600013    2.138809    0.008226
H        -0.922254    1.272534    1.367557
C         0.438620   -1.490857   -0.301786
C        -0.972566   -1.284085    0.274380
H        -1.695283    0.000000   -1.295145
H        -2.685174    0.000000    0.147629
H         0.883973   -2.406796    0.089752
H         0.371291   -1.617577   -1.386056
H        -1.600013   -2.138809    0.008226
H        -0.922254   -1.272534    1.367557
H         1.910616    0.000000    1.512346
