17
0 1
C         2.691331   -0.163396    0.299866
C         1.936112    0.994501    0.205050
C         0.589677    0.929822   -0.107069
C         2.101197   -1.393660    0.080234
C         0.752260   -1.462066   -0.231195
C        -0.007429   -0.312203   -0.323554
H         2.684651   -2.301099    0.148973
H         0.266833   -2.411151   -0.414750
O        -1.323864   -0.374782   -0.668683
Si        -2.612453   -0.282874    0.357347
H         3.742838   -0.096386    0.542984
H         2.395585    1.962163    0.371828
O        -0.202660    2.028845   -0.218536
H         0.310673    2.819180   -0.026809
H        -3.789282   -0.042688   -0.494771
H        -2.436504    0.802370    1.342471
H        -2.767140   -1.562645    1.084968
