7
0 1
S        -1.456874   -0.129585   -0.093249
O        -0.028061    0.695071    0.056295
H        -1.642508   -0.425317    1.206082
Si         1.408143   -0.141221   -0.007603
H         2.457622    0.888388    0.092652
H         1.515754   -0.886998   -1.277123
H         1.489611   -1.086193    1.126462
