13
0 2
C        -0.597879    1.674165    0.176764
Si         0.000037   -0.000008   -0.426168
H         0.051260    2.477984   -0.171361
H        -1.609312    1.884958   -0.171477
C        -1.150964   -1.354838    0.176710
H        -0.827796   -2.336192   -0.171440
H        -2.171622   -1.194570   -0.171529
H        -1.170163   -1.377359    1.270579
C         1.748796   -0.319317    0.176944
H         2.437093    0.451257   -0.171145
H         2.120405   -1.283356   -0.171245
H         1.777796   -0.324671    1.270819
H        -0.607900    1.701992    1.270637
