13
0 2
Si         0.000015   -0.000023   -0.426143
C        -0.337722    1.745355    0.176714
H         0.425588    2.441671   -0.171435
H        -0.343444    1.774444    1.270584
H        -1.305600    2.106758   -0.171569
C        -1.342679   -1.165132    0.176811
H        -2.327349   -0.852276   -0.171404
H        -1.365055   -1.184509    1.270684
H        -1.171709   -2.184077   -0.171358
C         1.680381   -0.580196    0.176870
H         2.477288    0.077417   -0.171250
H         1.901874   -1.589342   -0.171372
H         1.708321   -0.589921    1.270745
