14
0 2
O         0.000005    0.265312    1.421247
C        -0.000001   -0.024825    0.077038
C        -1.265526   -0.787489   -0.310214
H        -2.149664   -0.219654   -0.023981
H        -1.294203   -1.749344    0.201868
C         0.000021    1.374655   -0.577586
H         0.000017    1.244370   -1.659686
H         0.887032    1.933061   -0.285392
H        -0.886973    1.933088   -0.285391
C         1.265501   -0.787528   -0.310215
H         1.294150   -1.749383    0.201867
H         2.149657   -0.219719   -0.023983
H         1.295206   -0.971916   -1.384711
H        -1.295237   -0.971877   -1.384709
