8
0 2
O        -1.856046   -0.154012   -0.000005
O        -0.676420   -0.717315   -0.000005
C         0.405299    0.224974   -0.000001
O         0.221998    1.386777    0.000000
C         1.681201   -0.542392    0.000008
H         1.724531   -1.185200   -0.878907
H         1.724543   -1.185152    0.878957
H         2.515668    0.151261   -0.000015
