13
0 2
Si         0.000017   -0.000001   -0.426134
C         1.777575    0.023631    0.176822
H         2.327950   -0.850701   -0.171511
H         1.807178    0.023861    1.270690
H         2.304446    0.912423   -0.171252
C        -0.868334   -1.551233    0.176764
H        -0.882974   -1.577008    1.270630
H        -0.362045   -2.451909   -0.171311
H        -1.900705   -1.590698   -0.171596
C        -0.909261    1.527605    0.176805
H        -0.427156    2.441417   -0.171370
H        -0.924448    1.553047    1.270675
H        -1.942359    1.539570   -0.171427
