7
0 2
Si         0.671822    0.000000   -0.100046
C        -1.196345    0.000000    0.029233
H        -1.621245    0.882477   -0.448513
H        -1.507181   -0.000005    1.076452
H        -1.621246   -0.882472   -0.448522
H         1.261116    1.210965    0.522917
H         1.261116   -1.210965    0.522917
