13
0 1
Si        -1.438688   -0.338094    0.150378
O        -0.080388   -1.042954   -0.492679
C         1.177588   -1.085333    0.108449
C         1.873952    0.209390    0.050912
H         1.788524   -1.822718   -0.413786
H         1.117137   -1.387151    1.159538
N         2.400920    1.223737    0.015529
C        -1.463621    1.497793   -0.097262
H        -0.623916    1.983070    0.400429
H        -2.386672    1.915993    0.309657
H        -1.417601    1.748421   -1.157513
H        -1.462883   -0.665022    1.598304
H        -2.563802   -0.992909   -0.541783
