12
0 2
O         0.000001   -2.283485    0.000000
C         0.000000   -1.040449    0.000000
C         0.000000   -0.287694   -1.232816
C         0.000000   -0.287694    1.232816
C         0.000000    1.077718    1.217264
C         0.000000    1.769926    0.000000
C         0.000000    1.077718   -1.217264
H         0.000000    1.633716   -2.145512
H         0.000000   -0.854169   -2.154042
H         0.000000    1.633716    2.145512
H         0.000000    2.851637    0.000000
H         0.000000   -0.854169    2.154042
