13
0 2
Si        -1.422520   -0.166753   -0.000767
C         0.411999    0.016998   -0.408635
C         0.961773    1.330975    0.153492
H         0.419529    2.198282   -0.224261
H         2.014155    1.452306   -0.117177
H         0.900753    1.349046    1.243665
C         1.226135   -1.177025    0.086744
H         0.483956    0.055936   -1.500018
H         2.282530   -1.055667   -0.163593
H         0.885086   -2.115084   -0.352446
H         1.158437   -1.275981    1.172486
H        -2.206500    0.990316   -0.504947
H        -1.622102   -0.290303    1.467424
