11
0 1
O         0.375282   -0.842835   -0.284390
N         1.314959    0.106883    0.001347
O         0.926462    1.062324    0.632648
O         2.408997   -0.116543   -0.405472
Si        -1.221354   -0.569494    0.295344
C        -2.027436    0.870455   -0.535275
H        -1.583131    1.813922   -0.224666
H        -3.088298    0.888036   -0.276856
H        -1.951512    0.785316   -1.619806
H        -1.178898   -0.460144    1.761805
H        -1.825223   -1.848685   -0.115356
