8
0 2
C         0.177830    0.477335   -0.000001
O         1.247592   -0.363311    0.000004
C        -1.180517   -0.194528   -0.000001
H         0.301156    1.153910   -0.864709
H         0.301150    1.153928    0.864694
H        -1.293299   -0.823013   -0.883089
H        -1.980316    0.547822   -0.000010
H        -1.293306   -0.822998    0.883096
