21
0 1
Si         0.964842    1.366844   -0.049844
C        -0.475798    0.136567   -0.013060
C        -1.775723    0.925764   -0.059924
O        -2.873117    0.026541    0.024949
H        -1.807418    1.637596    0.773642
H        -1.829416    1.499591   -0.992845
H        -3.694397    0.523509   -0.006136
C        -0.404636   -0.668147    1.292725
O         2.402695    0.564054   -0.149920
H         2.509762   -0.057715    0.582390
C        -0.421909   -0.805244   -1.226811
O         0.870995   -1.267200    1.499462
H        -1.185979   -1.432180    1.301419
H        -0.576620   -0.012789    2.148005
H         0.998887   -1.875797    0.757698
O         0.727894   -1.645689   -1.250206
H        -0.487544   -0.227241   -2.155621
H        -1.277269   -1.478562   -1.199649
H         1.513182   -1.094299   -1.359163
H         0.887156    2.219651    1.159548
H         0.882538    2.207134   -1.263333
