10
0 2
Si         0.000000    0.574024   -0.133293
C        -1.550109   -0.466057    0.041231
H        -2.448063    0.144821   -0.049495
H        -1.573904   -0.956064    1.018250
H        -1.591316   -1.242050   -0.723694
C         1.550109   -0.466057    0.041231
H         1.591316   -1.242050   -0.723694
H         1.573904   -0.956064    1.018250
H         2.448063    0.144821   -0.049495
H         0.000000    1.662933    0.881219
