12
0 1
Si        -1.641672   -0.003640    0.000002
O        -0.056142   -0.411943    0.000000
C         1.007190    0.525632   -0.000005
C         2.322252   -0.213414    0.000000
H         0.931502    1.168606    0.883786
H         0.931502    1.168596   -0.883803
H         2.402197   -0.846273    0.883473
H         3.154850    0.491309   -0.000004
H         2.402197   -0.846283   -0.883467
H        -2.404358   -1.264386    0.000009
H        -1.981005    0.800811   -1.198818
H        -1.980999    0.800820    1.198819
