13
0 1
Si         0.792144    0.013291    0.372159
O        -0.713296   -0.523620   -0.213874
N        -1.816583    0.192670    0.239901
O        -2.810820   -0.217791   -0.204425
C         1.137765    1.716725   -0.272594
H         1.158425    1.727420   -1.363278
H         2.104681    2.073448    0.087279
H         0.376098    2.422216    0.060637
C         1.986183   -1.261517   -0.239910
H         1.992163   -1.298593   -1.329857
H         1.725206   -2.252430    0.131648
H         2.998341   -1.030013    0.096343
H         0.720389    0.023228    1.849110
