14
0 2
O        -0.000007    0.265312    1.421247
C         0.000001   -0.024825    0.077038
C        -1.265496   -0.787535   -0.310215
H        -2.149656   -0.219732   -0.023984
H        -1.294139   -1.749391    0.201867
C        -0.000029    1.374655   -0.577586
H        -0.000025    1.244369   -1.659686
H         0.886962    1.933094   -0.285391
H        -0.887044    1.933056   -0.285393
C         1.265530   -0.787482   -0.310213
H         1.294213   -1.749337    0.201868
H         2.149665   -0.219641   -0.023980
H         1.295243   -0.971869   -1.384709
H        -1.295199   -0.971924   -1.384711
