17
0 1
Si        -0.908952    0.048870   -0.007480
O        -1.869893    1.372192   -0.011134
O        -1.232274   -0.886330   -1.311128
H        -2.794852    1.263481   -0.240667
C         0.827008    0.682516   -0.016178
C         1.900309   -0.406156    0.003751
H         0.957643    1.354899    0.838240
H         0.947658    1.310820   -0.903843
C         3.313785    0.155534   -0.014194
H         1.761415   -1.065942   -0.856344
H         1.769418   -1.033990    0.888859
H         3.482225    0.758871   -0.908138
H         4.061065   -0.639092   -0.001462
H         3.491275    0.795493    0.852383
H        -1.421715   -1.812446   -1.150440
O        -1.219176   -0.940001    1.270914
H        -1.204680   -0.574515    2.156652
