10
0 1
Si        -0.713215   -0.547034    0.000045
O        -1.172777    1.033878   -0.000225
H        -2.104739    1.254355    0.000921
C         1.133896   -0.549048   -0.000061
C         1.859906    0.560428    0.000046
H         1.651727   -1.505136   -0.000252
H         1.394345    1.538904    0.000214
H         2.943950    0.539453   -0.000042
H        -1.240448   -1.254466   -1.192539
H        -1.240425   -1.253946    1.192955
