22
0 1
Si        -0.174124   -0.179756    0.490620
O        -0.948256   -1.334515   -0.463699
O        -2.258246   -1.538841    0.104901
H        -2.223392   -2.483163    0.304509
C         1.492724    0.006616   -0.338979
C         2.322984    1.090326    0.352490
C        -1.166533    1.393887    0.547409
H         1.830442    2.063652    0.333671
H         3.293448    1.203613   -0.135651
H         2.515615    0.836944    1.397853
C         2.251429   -1.319627   -0.395189
H         1.294509    0.330619   -1.366006
H         2.458084   -1.697415    0.608919
H         3.212230   -1.196170   -0.900517
H         1.687947   -2.085465   -0.927823
C        -1.378158    2.053102   -0.815991
H        -0.670330    2.084846    1.235714
H        -2.129558    1.157355    1.005881
H        -0.431323    2.347306   -1.271965
H        -1.992884    2.950216   -0.734692
H        -1.876061    1.373169   -1.507915
H        -0.013646   -0.727904    1.861284
