12
0 1
Si         0.002718    0.064218    0.352900
O        -0.092508    1.576562   -0.306418
H         0.567591    2.230383   -0.073090
C        -1.533729   -0.821515   -0.189298
H        -1.574597   -0.893001   -1.277279
H        -2.426467   -0.293912    0.147214
C         1.543383   -0.821514   -0.206314
H         1.561595   -0.928805   -1.292122
H         1.595527   -1.819985    0.232694
H         2.444994   -0.284448    0.093606
H        -1.564914   -1.833663    0.217659
H         0.040362    0.170068    1.835727
