17
0 2
C         2.476789    0.550085    0.212150
C         1.355303    1.353266    0.188603
C         0.091079    0.813362   -0.031064
C         2.339837   -0.811361   -0.008526
C         1.092986   -1.365679   -0.237338
C        -0.038785   -0.567429   -0.243079
H         3.213578   -1.449760   -0.006104
H         0.974688   -2.424624   -0.422572
O        -1.238071   -1.139470   -0.515836
C        -2.056741   -1.431509    0.610190
H        -2.973917   -1.861517    0.217877
H        -2.295552   -0.527576    1.169883
H        -1.561175   -2.154723    1.262863
H         3.452647    0.980694    0.387076
H         1.434638    2.422212    0.334012
C        -1.044628    1.744792   -0.085096
O        -2.204421    1.552236   -0.156423
