13
0 1
C         1.689743    0.636480    0.000000
O         0.340956    0.728092    0.000001
Si        -0.770080   -0.503172    0.000000
C        -2.436031    0.301719   -0.000001
C         2.404870   -0.476292    0.000000
H         2.156595    1.614424   -0.000001
H         1.956713   -1.460694    0.000001
H         3.482230   -0.414171   -0.000001
H        -2.565326    0.927181    0.883442
H        -3.223981   -0.453293   -0.000002
H        -2.565324    0.927182   -0.883443
H        -0.569461   -1.346196    1.200745
H        -0.569460   -1.346196   -1.200745
