15
0 1
C        -2.262374   -0.178949   -0.028002
O        -0.962148   -0.644708   -0.299101
H        -2.430690    0.811674   -0.460572
H        -2.453018   -0.125440    1.048569
H        -2.976817   -0.872419   -0.470172
Si         0.408228   -0.002627    0.348187
C         1.806613   -1.091950   -0.197110
H         1.649194   -2.119875    0.130002
H         2.754531   -0.745601    0.218374
H         1.894534   -1.093387   -1.284499
C         0.648142    1.762437   -0.200667
H         1.555258    2.181067    0.239792
H        -0.185930    2.395481    0.106195
H         0.740019    1.828125   -1.286130
H         0.280617   -0.014416    1.831314
