9
0 1
Si        -1.054551    0.089379    0.000001
O         0.448669   -0.560254   -0.000005
C         1.636242    0.201413    0.000002
H         1.701622    0.835519   -0.888950
H         2.481601   -0.484728   -0.000026
H         1.701642    0.835471    0.888987
H        -2.002606   -1.038242   -0.000032
H        -1.262664    0.937145   -1.198898
H        -1.262682    0.937089    1.198936
