10
0 2
Si        -1.212061   -0.037801    0.000000
C         0.527205    0.673055   -0.000001
C         1.621253   -0.398747    0.000001
H         0.634939    1.320796    0.872906
H         0.634939    1.320794   -0.872909
H         1.550372   -1.039935    0.879484
H         2.614920    0.053048    0.000000
H         1.550372   -1.039937   -0.879481
H        -1.453716   -0.865703   -1.209404
H        -1.453717   -0.865700    1.209406
