18
0 1
O         0.643611   -0.675659   -0.251590
Si         1.990405    0.053382    0.341713
C        -0.666784   -0.316144   -0.127502
O         2.319965    1.491548   -0.340775
C        -1.618412   -1.323892   -0.140548
C        -1.055169    1.010331   -0.010069
C        -2.400797    1.318293    0.104087
C        -3.357190    0.318297    0.094589
C        -2.958689   -1.003119   -0.030965
H        -3.697683   -1.793400   -0.041895
H        -1.291022   -2.349888   -0.237234
H        -2.700077    2.353861    0.197411
H        -4.406138    0.565875    0.181524
H        -0.309844    1.794292   -0.021081
H         2.699973    1.514934   -1.221755
O         3.207598   -0.974927    0.007842
H         3.007794   -1.909452   -0.071393
H         1.804175    0.326139    1.769067
