21
0 1
C        -1.862127   -0.438356    0.000014
O        -0.772605    0.458566   -0.000023
Si         0.821819    0.033125    0.000001
C         1.757142    1.638736   -0.000061
H         1.510468    2.231755   -0.881644
H         2.835136    1.467268   -0.000050
H         1.510461    2.231826    0.881472
C         1.217419   -0.972293    1.523842
H         0.972719   -0.420599    2.432936
H         2.280203   -1.219892    1.560024
H         0.663568   -1.912613    1.543399
C         1.217432   -0.972417   -1.523755
H         0.972741   -0.420797   -2.432895
H         0.663578   -1.912738   -1.543240
H         2.280215   -1.220022   -1.559906
C        -3.154253    0.342806   -0.000025
H        -1.815799   -1.086147    0.882856
H        -1.815793   -1.086226   -0.882770
H        -3.212367    0.978885    0.883044
H        -4.011061   -0.332635    0.000002
H        -3.212362    0.978805   -0.883152
