10
0 1
C        -1.916244    0.854223    0.009398
S        -0.986639   -0.660242   -0.169431
H        -1.412539    1.694079   -0.465495
H        -2.103689    1.066420    1.060270
H        -2.867919    0.679089   -0.494765
O         0.376342   -0.259744    0.693667
Si         1.733277    0.214779   -0.137095
H         2.731788    0.540141    0.897771
H         1.437944    1.403592   -0.965843
H         2.221489   -0.873731   -1.007447
