13
0 1
C         2.493747   -0.800050    0.346612
C         1.891383    0.401301   -0.383467
H         1.939216   -1.712394    0.127618
H         2.478599   -0.657517    1.428262
H         3.530495   -0.962475    0.051412
Si         0.131684    0.767565    0.077011
H         2.475986    1.303760   -0.179615
H         1.937791    0.253088   -1.465327
O        -0.696260   -0.664966   -0.378020
N        -2.038727   -0.782984   -0.171720
O        -2.527501    0.168553    0.319283
H        -0.423585    1.906694   -0.677147
H        -0.031690    0.967629    1.529716
