19
0 2
Si        -0.239586   -0.930463   -0.413667
C         1.101437    0.187420    0.316104
C         2.440731   -0.535813    0.441723
C        -1.904837   -0.059617   -0.540088
H         2.352310   -1.461209    1.012655
H         3.178429    0.095012    0.943515
H         2.842275   -0.791400   -0.541042
C         1.248265    1.499211   -0.451963
H         0.750245    0.423353    1.328994
H         1.579150    1.319220   -1.477181
H         1.989804    2.146637    0.022109
H         0.310726    2.055003   -0.501257
C        -2.414824    0.492405    0.794770
H        -2.625907   -0.770147   -0.950932
H        -1.828615    0.746002   -1.274096
H        -2.511946   -0.297472    1.541071
H        -3.393947    0.961444    0.682270
H        -1.737580    1.244497    1.201913
H        -0.375369   -2.146097    0.440042
