7
0 2
Si        -0.671822    0.000000   -0.100046
C         1.196345    0.000000    0.029233
H         1.621254   -0.882436   -0.448582
H         1.507181   -0.000075    1.076452
H         1.621237    0.882513   -0.448453
H        -1.261119   -1.210964    0.522917
H        -1.261113    1.210966    0.522917
