10
0 2
C         1.621253   -0.398747    0.000004
C         0.527205    0.673055   -0.000006
H         1.550372   -1.039943   -0.879473
H         1.550371   -1.039929    0.879492
H         2.614920    0.053048    0.000001
Si        -1.212061   -0.037801    0.000000
H         0.634939    1.320802    0.872896
H         0.634940    1.320788   -0.872919
H        -1.453719   -0.865687    1.209414
H        -1.453715   -0.865716   -1.209396
