16
0 1
C         1.525889    0.761175   -0.484445
C         1.721237   -0.675633    0.012153
C         0.347156    1.383556    0.285159
H         1.289892    0.738124   -1.552231
H         2.441355    1.345424   -0.377139
Si        -0.864383   -0.043601    0.433770
H        -0.053509    2.270953   -0.204804
H         0.673049    1.687811    1.284077
C         0.358618   -1.391980   -0.001880
H         0.335843   -2.263563    0.650950
H         0.122865   -1.741888   -1.010660
H         2.106747   -0.645137    1.035490
H         2.465199   -1.203976   -0.586165
O        -2.080499   -0.042718   -0.684139
H        -2.885772    0.439783   -0.493324
H        -1.467721   -0.138087    1.788213
