27
0 1
O        -0.287163   -0.385252   -0.371095
Si         1.066591   -0.657091    0.522207
C         2.496371   -0.488114   -0.658402
C         2.579677    0.875334   -1.346244
H         2.406437   -1.279848   -1.406788
H         3.420861   -0.696144   -0.111063
H         2.715461    1.681528   -0.623301
H         1.667497    1.086706   -1.904655
C        -1.629025   -0.472751    0.086833
C        -2.404685    0.714018   -0.457139
C        -1.865021    2.053657    0.013789
H        -3.450733    0.605376   -0.159508
H        -2.377232    0.661035   -1.548757
H        -0.832636    2.188608   -0.306235
H        -1.891018    2.127937    1.103044
C         1.181619    0.545210    1.943912
H         2.080069    0.351836    2.533564
H         0.325754    0.456328    2.614451
H         1.223230    1.576725    1.591896
C        -2.220506   -1.798863   -0.346739
H        -1.644266   -0.418356    1.184146
H        -3.248999   -1.898416    0.002694
H        -1.639209   -2.628746    0.054421
H        -2.213304   -1.870775   -1.435022
H         3.415836    0.921930   -2.045139
H        -2.452742    2.878644   -0.388962
H         1.029428   -2.034024    1.087020
