10
0 2
Si        -1.212061   -0.037801   -0.000002
C         0.527205    0.673055   -0.000022
C         1.621253   -0.398747    0.000017
H         0.634936    1.320824    0.872865
H         0.634942    1.320766   -0.872950
H         1.550369   -1.039907    0.879520
H         2.614920    0.053048    0.000005
H         1.550374   -1.039965   -0.879445
H        -1.453709   -0.865754   -1.209372
H        -1.453724   -0.865649    1.209437
