18
0 1
C        -2.328740    0.000000   -0.235035
O        -1.052248    0.000000   -0.823355
H        -2.487835    0.887897    0.384733
H        -2.487835   -0.887897    0.384733
H        -3.075236    0.000000   -1.028812
Si         0.376430    0.000000    0.003309
C         1.697519    0.000001   -1.302856
H         1.614140   -0.881596   -1.939648
H         2.693444    0.000000   -0.856076
H         1.614140    0.881599   -1.939646
C         0.493773    1.523633    1.077445
H         0.404747    2.433053    0.481074
H         1.453370    1.558307    1.597154
H        -0.288517    1.544106    1.838392
C         0.493773   -1.523635    1.077444
H         0.404748   -2.433054    0.481071
H        -0.288517   -1.544108    1.838390
H         1.453371   -1.558309    1.597152
