13
0 2
Si        -1.840910   -0.001549    0.000000
C        -0.067899    0.617245   -0.000001
C         0.979602   -0.500898    0.000001
H         0.076294    1.259162    0.873452
H         0.076294    1.259160   -0.873454
C         2.405215    0.032535    0.000000
H         0.830752   -1.141131   -0.873149
H         0.830752   -1.141129    0.873151
H         2.591226    0.649533   -0.880914
H         3.133767   -0.779257    0.000001
H         2.591226    0.649535    0.880913
H        -2.129539   -0.813743   -1.209521
H        -2.129540   -0.813739    1.209524
