20
0 1
C        -1.942829    1.872531    0.000166
C        -2.109455    0.503070   -0.075198
C        -1.024565   -0.367601   -0.088816
C        -0.665712    2.403155    0.053637
C         0.432790    1.563670    0.028258
C         0.257045    0.190059   -0.043681
H        -0.519002    3.473445    0.107905
H         1.431201    1.980076    0.065558
O         1.316271   -0.662851   -0.064834
Si         2.931724   -0.355295    0.044561
H        -3.107165    0.091176   -0.144246
H        -2.805781    2.523972    0.005823
C        -1.184010   -1.824602   -0.160816
C        -2.265639   -2.502455    0.195704
H        -0.321616   -2.367634   -0.525442
H        -3.143113   -2.020372    0.607317
H        -2.303427   -3.578331    0.097481
H         3.578827   -1.675805   -0.008445
H         3.246360    0.333106    1.314583
H         3.383664    0.490345   -1.081237
