21
0 1
C         1.579845    1.439822    0.000002
C         1.231801    0.096980    0.000003
C        -0.109217   -0.271152    0.000002
C         0.586233    2.406489    0.000000
C        -0.744662    2.043086   -0.000001
C        -1.094877    0.697417    0.000000
H         0.853303    3.454664   -0.000001
H        -1.532040    2.784080   -0.000002
O        -2.417536    0.396170   -0.000002
Si        -3.148839   -1.086963   -0.000005
H         2.617113    1.740681    0.000002
H        -0.345690   -1.326948    0.000002
C         2.251753   -0.996944    0.000002
O         1.908192   -2.155204    0.000002
C         3.711101   -0.626165    0.000004
H         3.957793   -0.029973   -0.879451
H         4.302600   -1.536901    0.000004
H         3.957790   -0.029973    0.879460
H        -4.591478   -0.797455   -0.000010
H        -2.766382   -1.852811    1.204341
H        -2.766373   -1.852810   -1.204349
