10
0 1
Si        -0.397023    0.517781    0.012525
O         0.778578   -0.680079   -0.025039
O         2.044630    0.009019   -0.092333
H         2.482851   -0.339588    0.694944
C        -2.001046   -0.411084    0.000294
H        -2.096826   -1.014144   -0.902588
H        -2.838280    0.288581    0.029880
H        -2.082315   -1.070619    0.864333
H        -0.253353    1.396109   -1.165940
H        -0.233139    1.325715    1.241239
