16
0 2
C        -2.013121   -1.072865   -0.000003
C        -0.695130   -1.460796   -0.000008
C         0.327726   -0.516669   -0.000006
C        -2.366097    0.294066    0.000003
C        -1.398448    1.243229    0.000004
C         0.005342    0.907442   -0.000001
H        -3.410489    0.575609    0.000007
H        -1.626641    2.300366    0.000007
O         0.881534    1.789467   -0.000011
H        -2.789611   -1.825746   -0.000004
O         1.562599   -1.005640   -0.000014
C         2.736774   -0.192519    0.000027
H         3.559364   -0.902729    0.000042
H         2.774895    0.438275    0.884034
H         2.774943    0.438294   -0.883964
H        -0.417804   -2.506011   -0.000014
