12
0 1
C         2.373602   -0.245972   -0.061425
O         1.254395    0.587311   -0.288844
H         3.232266    0.198105   -0.561261
H         2.201939   -1.244097   -0.468554
H         2.592790   -0.331553    1.006112
Si        -0.212358    0.410960    0.389009
C        -1.310534    1.741392   -0.254285
H        -0.911223    2.721470    0.009748
H        -2.312066    1.650692    0.166594
H        -1.386561    1.680950   -1.339859
Cl        -0.985813   -1.440976   -0.112654
H        -0.098877    0.396580    1.861215
