12
0 2
C         1.695199   -1.341305   -0.000004
C         0.307454   -1.444286   -0.000001
C        -0.464221   -0.310805   -0.000002
C         2.328942   -0.088224    0.000000
C         1.587587    1.052529   -0.000001
C         0.141233    1.016675   -0.000020
H         2.290731   -2.244003    0.000000
H        -0.168882   -2.414486    0.000004
Cl        -2.168824   -0.413962    0.000006
H         3.409425   -0.038004    0.000006
H         2.038534    2.035318    0.000006
O        -0.534620    2.048877    0.000007
