27
0 1
O         0.170700   -1.636758   -0.532957
Si        -1.433663   -1.540088   -0.202012
C        -1.940052    0.120664    0.483531
C        -1.602942    1.314031   -0.409659
H        -1.479865    0.249653    1.468951
H        -3.019967    0.084811    0.668312
C        -2.002535    2.648524    0.201326
H        -2.096604    1.194278   -1.377876
H        -0.531321    1.321069   -0.621839
H        -3.076133    2.684928    0.395269
H        -1.752939    3.481348   -0.457481
H        -1.491118    2.809933    1.152378
C         1.209660   -1.699051    0.426806
C         1.776584   -0.328039    0.740444
H         1.991620   -2.339303    0.011094
H         0.850133   -2.177539    1.344891
C         2.376106    0.370166   -0.470301
H         2.538308   -0.443732    1.517895
H         0.988930    0.296434    1.172274
C         2.843265    1.783052   -0.160299
H         1.635482    0.390871   -1.271507
H         3.214193   -0.223636   -0.846598
H         2.011414    2.404378    0.178206
H         3.277861    2.261809   -1.038111
H         3.598039    1.787036    0.628688
H        -1.796632   -2.590732    0.784463
H        -2.116242   -1.792394   -1.488280
