12
0 2
O         0.000014    2.283484    0.000000
C        -0.000028    1.040454    0.000000
C         0.000002    0.287693    1.232815
C         0.000002    0.287693   -1.232815
C         0.000002   -1.077718   -1.217263
C        -0.000004   -1.769926    0.000000
C         0.000002   -1.077718    1.217263
H         0.000011    0.854169    2.154041
H         0.000008   -1.633719    2.145508
H         0.000011    0.854169   -2.154041
H         0.000008   -1.633719   -2.145508
H        -0.000001   -2.851637    0.000000
