20
0 1
Si        -0.823056   -0.199342    0.015669
O        -0.733436   -0.398287    1.637490
O        -2.201441    0.601859   -0.358398
H        -1.523601   -0.668747    2.109126
C         0.701973    0.759134   -0.457026
C         1.996123    0.225031    0.167876
C         2.300987   -1.238377   -0.119402
H         1.953775    0.376349    1.248929
H         2.826550    0.838661   -0.194295
H         1.603264   -1.901267    0.397454
H         3.299305   -1.505977    0.227019
H         2.255894   -1.452697   -1.189719
C         0.528648    2.245156   -0.127691
H         0.788096    0.660491   -1.546319
H         0.426245    2.396208    0.948563
H        -0.355008    2.666537   -0.605333
H         1.399142    2.816318   -0.458253
H        -2.742548    0.225351   -1.054946
O        -0.980177   -1.623265   -0.792506
H        -0.254284   -2.248561   -0.776819
