16
0 1
C        -2.892530   -0.144247   -0.390561
C        -1.872554    0.339146    0.612775
H        -2.551962   -1.058296   -0.872777
H        -3.063856    0.611315   -1.156974
H        -3.838813   -0.350229    0.111696
Si         1.470484   -0.596622    0.225039
C         2.535087    0.837217   -0.268804
H         3.525652    0.747067    0.181351
H         2.094185    1.776314    0.064445
H         2.655631    0.879413   -1.351524
O        -0.634944    0.687647    0.015941
O        -0.047920   -0.535728   -0.483371
H        -1.697630   -0.401796    1.397780
H        -2.185848    1.273277    1.083401
H         1.320772   -0.652595    1.696250
H         1.997990   -1.879811   -0.285210
