16
0 2
C        -0.087947    1.595997    0.000000
C        -0.760712    0.348942    0.000001
C        -0.052815   -0.814983    0.000000
C         1.300093    1.654738   -0.000001
C         2.043266    0.503429   -0.000002
C         1.391898   -0.788657   -0.000002
H         1.787338    2.620529   -0.000001
H         3.124066    0.509985   -0.000002
O         2.055938   -1.835669    0.000001
H        -0.516237   -1.789157    0.000001
H        -0.689267    2.494489    0.000000
O        -2.106748    0.443797    0.000001
C        -2.853500   -0.755734    0.000001
H        -3.898801   -0.461439    0.000002
H        -2.641159   -1.350910    0.890994
H        -2.641161   -1.350910   -0.890993
