19
0 1
C        -3.132242   -0.866881   -0.055029
C        -1.846539   -0.184898   -0.497020
H        -3.794677   -0.162791    0.452045
H        -2.921510   -1.681301    0.640538
H        -3.674945   -1.284643   -0.903895
C        -1.057145    0.409374    0.669860
H        -2.081940    0.601949   -1.219046
H        -1.218565   -0.903082   -1.029353
Si         0.507628    1.282618    0.165439
H        -0.818473   -0.374856    1.393558
H        -1.674745    1.135662    1.210608
O         1.456789    0.322791   -0.801157
C         2.075757   -0.838194   -0.496925
C         2.133280   -1.420076    0.690119
H         1.674404   -0.997761    1.573482
H         2.669516   -2.350264    0.798280
H         2.554218   -1.274900   -1.365929
H         1.274490    1.704459    1.360598
H         0.212443    2.452591   -0.683806
