27
0 1
O        -0.290296   -0.035988    0.637732
Si         1.246485   -0.004296    0.057952
C         2.304477   -0.486934    1.510750
H         2.050285   -1.487999    1.861587
H         2.158245    0.204288    2.341894
C        -1.597044   -0.000849    0.076549
C        -1.967178   -1.399334   -0.401490
H        -1.870444   -2.110064    0.418914
H        -1.314450   -1.719753   -1.212702
C         1.499061   -1.214617   -1.345721
H         2.547884   -1.218454   -1.650521
H         0.906379   -0.958872   -2.225289
H         1.237175   -2.230725   -1.047379
C        -2.522467    0.433305    1.203148
H        -3.559780    0.463035    0.867911
H        -2.241360    1.424589    1.558157
H        -2.444207   -0.262844    2.037626
C         1.720927    1.707411   -0.523987
H         1.524847    2.449718    0.251496
H         1.175642    2.006222   -1.419512
H         2.786970    1.746299   -0.758363
C        -1.668129    0.995397   -1.073937
H        -1.015067    0.697199   -1.894877
H        -1.371441    1.988758   -0.738277
H        -2.685103    1.054207   -1.462412
H         3.364226   -0.479425    1.248944
H        -2.996103   -1.424412   -0.762245
