13
0 2
Si         0.000017    0.000003   -0.426118
C         0.773757   -1.600513    0.176817
H         0.786691   -1.627151    1.270685
H         1.801947   -1.701786   -0.171423
H         0.214428   -2.469210   -0.171347
C         0.999199    1.470350    0.176844
H         2.031203    1.420256   -0.171237
H         1.015727    1.494943    1.270711
H         0.572862    2.411413   -0.171490
C        -1.772980    0.130156    0.176710
H        -1.802597    0.132306    1.270578
H        -2.374739   -0.709664   -0.171554
H        -2.245617    1.048885   -0.171505
