9
0 2
Si        -1.859977    0.584087    0.031304
S        -0.450980   -0.961665   -0.402849
H        -2.230736    0.593042    1.464917
H        -1.316128    1.905954   -0.360839
S         1.143692   -0.191666    0.672400
C         1.993739    0.796455   -0.573496
H         2.863644    1.226811   -0.077410
H         1.355730    1.598934   -0.935687
H         2.321350    0.172597   -1.401088
