10
0 1
Si         2.061694   -0.746506   -0.000006
Si         0.535276    1.022803    0.000015
H         3.441278   -0.210100   -0.000040
H         1.865026   -1.581530   -1.205092
H         1.865080   -1.581516    1.205099
N        -1.064010    0.406600    0.000022
H         0.698124    1.869400   -1.199897
H         0.698137    1.869386    1.199934
C        -2.094927   -0.183361   -0.000006
O        -3.113450   -0.747479   -0.000031
