8
0 1
Si        -1.893105    0.000014    0.000017
Si         0.430184   -0.000003    0.000002
F         1.021620    0.466813    1.390045
H        -2.367140   -0.925067    1.048219
F         1.021557    0.970423   -1.099312
H        -2.367145   -0.445224   -1.325222
F         1.021527   -1.437256   -0.290767
H        -2.367167    1.370314    0.277053
