13
0 1
Si         0.391937    0.746662    0.128730
Si         2.424862   -0.400943    0.021723
O        -0.729809   -0.370951   -0.419590
H         0.389001    1.950845   -0.729514
H         0.060709    1.158585    1.512028
H         3.500196    0.496093    0.504411
H         2.728805   -0.803755   -1.368193
H         2.389661   -1.604334    0.881104
O        -2.011077    0.297006   -0.392780
C        -2.874416   -0.540140    0.339726
H        -3.839490   -0.034915    0.316093
H        -2.536999   -0.650385    1.372687
H        -2.953477   -1.519796   -0.134353
