16
0 2
Si         2.426451   -0.169132    0.000000
C         0.769153    0.713351    0.000000
C        -2.961657   -0.444385    0.000000
C        -1.769612    0.499346    0.000000
H        -2.951784   -1.089441    0.880616
H        -3.904676    0.102970    0.000000
C        -0.434173   -0.233492    0.000000
H        -1.816938    1.154654    0.874370
H        -1.816938    1.154654   -0.874371
H        -0.386777   -0.890339   -0.873653
H        -0.386777   -0.890338    0.873653
H         0.724954    1.369409   -0.873564
H         0.724954    1.369409    0.873564
H        -2.951784   -1.089441   -0.880616
H         2.586593   -1.016304   -1.209430
H         2.586593   -1.016303    1.209430
