15
0 2
Si         2.736578    0.223506   -0.005524
O         1.352114   -0.668589   -0.119428
H         2.681640    1.099664    1.195211
H         3.819939   -0.778082    0.104553
C         0.045511   -0.292202   -0.064843
C        -0.906066   -1.297849    0.014696
C        -0.346424    1.037847   -0.092347
C        -2.246942   -0.968768    0.073254
C        -2.648334    0.357950    0.050823
C        -1.693185    1.355282   -0.033051
H        -0.575296   -2.326971    0.031801
H        -2.985356   -1.757037    0.136710
H        -3.698467    0.611272    0.095934
H        -1.993885    2.394320   -0.055756
H         0.395064    1.822894   -0.166882
