16
0 1
Si         2.169460   -0.706908   -0.127817
Si         0.785029    1.175057   -0.143730
C        -1.533253   -0.354949    0.203500
O        -1.119053   -1.474224    0.391241
H         2.316430   -1.215636    1.252824
H         1.637271   -1.769845   -1.002978
H         3.508270   -0.310132   -0.626212
C        -0.830422    0.835027    0.787777
H        -0.554394    0.603201    1.817427
H        -1.454308    1.728803    0.777386
H         0.457743    1.568805   -1.536284
H         1.450433    2.328109    0.506358
C        -2.742812   -0.090254   -0.650205
H        -3.085175   -1.013178   -1.109866
H        -2.508388    0.648501   -1.419085
H        -3.539394    0.332133   -0.034287
