14
0 2
S        -1.515699   -0.000014   -0.076597
C         0.301818   -0.000001   -0.006158
C         0.655239   -0.000071    1.483553
H         1.742536   -0.000077    1.588074
H         0.266016   -0.885402    1.985674
H         0.266011    0.885211    1.985756
C         0.853753   -1.254197   -0.676623
H         0.576497   -1.291026   -1.730201
H         0.473672   -2.153600   -0.194677
H         1.944708   -1.259940   -0.615197
C         0.853700    1.254292   -0.676489
H         0.473593    2.153627   -0.194439
H         0.576439    1.291228   -1.730063
H         1.944655    1.260062   -0.615071
