12
0 1
Si        -1.778017   -0.555207   -0.161966
Si        -0.228209    1.142043    0.246060
H        -1.413665   -1.269688   -1.403814
H        -3.113762    0.060755   -0.357482
H        -1.854842   -1.492334    0.973660
N         1.366036    0.684935   -0.368720
H        -0.134939    1.461974    1.687438
H        -0.531621    2.393977   -0.483454
C         1.839233   -0.566811   -0.167715
O         1.218101   -1.414766    0.433879
H         2.834056   -0.764912   -0.598121
H         1.959470    1.318967   -0.879259
