15
0 2
Si        -2.265627   -0.530565   -0.095695
C        -0.434464   -0.316217    0.004622
H        -2.699767   -1.762167    0.599895
H        -2.983455    0.654839    0.448815
C         0.195569    0.934150    0.001708
C         0.385140   -1.453287    0.007847
C         1.759706   -1.359264    0.008378
C         2.354041   -0.103755    0.000021
C         1.579153    1.037236    0.000348
H        -0.076204   -2.433781    0.011251
H         2.367645   -2.253175    0.014779
O        -0.493823    2.104022   -0.004269
H         3.432397   -0.014722   -0.001808
H         2.024420    2.022536    0.003496
H        -1.430545    1.949025    0.159899
