13
0 1
Si        -1.494153    0.244668    0.614977
S         0.138454    1.121097   -0.472653
S         1.364555   -0.540038   -0.573568
C         2.360666   -0.356532    0.918873
H         3.054141   -1.197554    0.926653
H         1.739162   -0.395793    1.810160
H         2.922511    0.573708    0.893354
C        -2.344532   -1.091215   -0.356087
H        -2.765089   -0.691588   -1.278654
H        -3.153390   -1.531326    0.229814
H        -1.639697   -1.881656   -0.612757
H        -2.406464    1.377875    0.890238
H        -0.977983   -0.289483    1.894335
