11
0 2
Si        -1.854788   -0.294361   -0.083209
C        -0.039436    0.292530   -0.007184
H        -2.030444   -1.662700    0.468244
H        -2.724337    0.687386    0.591547
O         0.203441    1.486044    0.006155
N         0.934138   -0.649654   -0.023478
C         2.337384   -0.296656    0.021305
H         0.671745   -1.615823    0.059812
H         2.498704    0.590241   -0.586754
H         2.928377   -1.119432   -0.375226
H         2.668795   -0.074648    1.037693
