8
0 2
Si         1.767547   -0.058203   -0.123934
S        -0.426772    0.134083    0.064413
H         2.313244    1.100382    0.610432
H         2.134686   -1.358411    0.475932
O        -0.844838   -0.156026    1.407672
O        -0.942443   -1.092623   -0.836319
O        -0.839142    1.333207   -0.587235
H        -1.353840   -1.748922   -0.254837
