14
0 1
Si         1.163471    0.003149    0.025858
Si        -1.163471   -0.003149    0.025858
O        -1.935613    0.301981    1.436281
H        -2.186948   -0.453339    1.972196
O         1.935613   -0.301982    1.436281
H         2.186948    0.453338    1.972196
O        -1.723404   -1.459788   -0.479153
H        -1.143188   -1.965113   -1.055270
O         1.723404    1.459789   -0.479152
H         1.143188    1.965113   -1.055269
O        -1.511586    1.241641   -0.983731
H        -2.421734    1.538043   -1.066122
O         1.511586   -1.241641   -0.983731
H         2.421734   -1.538043   -1.066123
