7
0 2
Si        -1.089393    0.069990   -0.085860
C         0.686026   -0.505863   -0.006093
H        -2.013797   -0.790729    0.684567
H        -1.180441    1.496968    0.300508
N         1.712297    0.242524    0.034606
H         1.465010    1.233918    0.041253
H         0.878495   -1.582517   -0.029978
