18
0 1
Si         0.410223   -1.096547    0.000003
Si        -0.410223    1.096547    0.000007
N        -2.205887    0.945448    0.000000
H        -0.072568    1.882231   -1.205057
H        -0.072575    1.882225    1.205077
N        -2.562430   -0.233980    0.000005
N         2.205887   -0.945448   -0.000002
H         0.072568   -1.882227   -1.205063
H         0.072575   -1.882229    1.205071
N         2.562429    0.233980   -0.000005
C        -4.004553   -0.437607   -0.000008
H        -4.258378   -1.031473    0.879109
H        -4.258361   -1.031482   -0.879124
H        -4.540305    0.512433   -0.000018
C         4.004553    0.437607   -0.000009
H         4.258372    1.031478    0.879107
H         4.258367    1.031478   -0.879127
H         4.540305   -0.512433   -0.000010
