10
0 1
Si         1.810439   -0.814767   -0.000002
Si         0.509743    1.127957    0.000002
H         3.231208   -0.396411    0.000000
H         1.546140   -1.621090   -1.209444
O        -1.144701    0.748491    0.000008
H         0.745323    1.954283   -1.201191
H         0.745331    1.954284    1.201192
N        -1.464642   -0.616860    0.000002
O        -2.610823   -0.790568   -0.000010
H         1.546139   -1.621091    1.209440
