12
0 1
Si        -1.217946   -0.924988   -0.255783
Si         1.042879   -0.985789    0.386185
O        -1.651503    0.679924   -0.474427
H        -2.072810   -1.592644    0.749208
H        -1.443380   -1.523406   -1.589398
O        -1.358825    1.297402    0.799105
H        -0.476194    1.668466    0.620763
O         1.910832    0.192429   -0.459780
H         1.745200   -2.215302   -0.034480
H         1.214912   -0.780404    1.840502
O         1.365303    1.493781   -0.160878
H         1.356755    1.885902   -1.044377
