14
0 1
Si         2.476305   -0.829874    0.022495
Si         1.361790    1.224550   -0.039610
P        -1.244239   -0.182909   -0.001233
O        -1.963154    0.171420    1.360424
O        -2.389301    0.025993   -1.076898
H        -2.292041   -0.571472   -1.826683
O        -0.595192   -1.490667   -0.073320
O        -0.301622    1.044117   -0.177851
H         1.762975    2.032906   -1.208883
H         1.602618    2.016932    1.184303
H         2.139803   -1.597540    1.235362
H         3.919365   -0.480293    0.073991
H         2.231235   -1.615380   -1.201344
H        -2.439559   -0.573885    1.742527
