8
0 1
Si         1.296529   -0.000017    0.393871
Si        -1.027817   -0.000008    0.307504
F        -1.624459   -0.000047    1.772821
Cl        -1.684077   -1.663398   -0.644044
F         1.817015   -1.271833    1.169954
Cl         2.082959    0.000058   -1.466992
Cl        -1.684068    1.663439   -0.643951
F         1.817023    1.271731    1.170060
