16
0 1
Si         2.447588    0.000000    0.863046
S         1.460119    0.000000   -1.028168
C        -0.225095    0.000000   -0.435708
C        -0.888406   -1.200605   -0.221682
C        -2.203672   -1.198002    0.209331
C        -0.888406    1.200605   -0.221682
C        -2.203672    1.198002    0.209331
C        -2.863394    0.000000    0.426277
H        -3.891646    0.000000    0.762183
H        -2.714417   -2.137327    0.374488
H        -0.369775   -2.133404   -0.395161
H        -0.369775    2.133404   -0.395161
H        -2.714417    2.137328    0.374488
H         3.894199    0.000000    0.565811
H         2.086780   -1.201678    1.643104
H         2.086780    1.201679    1.643104
