10
0 1
Si         2.030348    0.708091   -0.232284
Si         0.608107   -1.005643    0.471144
H         3.369583    0.459974    0.345517
H         1.514604    2.009612    0.230995
H         2.110858    0.679306   -1.706986
S        -1.359328   -0.810791   -0.459496
H         0.423443   -1.047323    1.935175
H         1.023836   -2.336689   -0.017003
C        -1.691701    0.759909    0.061695
N        -1.925893    1.830576    0.407147
