8
0 1
Si         1.302901   -0.513625   -0.244913
Si        -0.882994    0.085190    0.361833
F        -1.847629   -1.104182   -0.077118
F         2.300636    0.620147    0.294899
F        -1.329174    1.377907   -0.450744
H         1.445219   -0.604985   -1.711132
H        -1.122443    0.354211    1.789850
H         1.684038   -1.795976    0.381070
