13
0 1
Si        -2.499288   -0.786106   -0.085045
Si        -0.997059    0.854805    0.622452
S         0.662283    1.044745   -0.734781
H        -0.483270    0.571826    1.981933
H        -1.644285    2.187987    0.629154
S         1.524657   -0.807486   -0.430973
H        -3.613352   -0.891416    0.886027
H        -1.833470   -2.099976   -0.195649
C         2.653523   -0.472433    0.935256
H         3.164528   -1.412708    1.142579
H         2.110823   -0.156786    1.822999
H         3.384831    0.280836    0.653726
H        -3.049111   -0.403114   -1.403935
