20
0 1
S         1.114732    0.205553   -0.000001
C         1.878096   -1.403527   -0.000002
O         1.482859    0.840426    1.250445
O         1.482858    0.840428   -1.250446
H         1.591662   -1.942816    0.899901
H         2.951442   -1.218060   -0.000003
H         1.591661   -1.942815   -0.899905
Si        -1.100082   -0.056588    0.000001
C        -1.685151    1.702210    0.000002
H        -1.321112    2.227858   -0.882555
H        -1.321113    2.227856    0.882560
C        -1.525894   -0.982936    1.554315
H        -2.608857   -1.029293    1.684501
H        -1.100747   -0.481344    2.423691
H        -1.152361   -2.007208    1.532173
C        -1.525896   -0.982935   -1.554314
H        -1.100752   -0.481342   -2.423691
H        -2.608859   -1.029293   -1.684497
H        -1.152362   -2.007207   -1.532174
H        -2.775843    1.743342    0.000001
