13
0 2
Si         0.000004    0.000001   -0.426129
C         1.167408   -1.340707    0.176797
H         0.856087   -2.325934   -0.171209
H         1.187053   -1.362886    1.270666
H         2.185999   -1.168134   -0.171613
C        -1.744796   -0.340651    0.176772
H        -1.773826   -0.346604    1.270641
H        -2.104650   -1.309050   -0.171665
H        -2.442359    0.421590   -0.171217
C         0.577382    1.681357    0.176813
H         1.586214    1.904441   -0.171314
H         0.586917    1.709391    1.270683
H        -0.081461    2.477177   -0.171461
