16
0 1
C         2.100346   -1.352241    0.252421
C         0.777721   -1.016858    0.476411
C         0.316085    0.276929    0.234467
C         1.220308    1.223007   -0.242307
C         2.546057    0.890851   -0.467799
C         2.986719   -0.397129   -0.219833
H         2.441915   -2.360781    0.444548
H         0.093768   -1.775073    0.838370
H         0.886426    2.233474   -0.444051
H         3.234413    1.638130   -0.839935
H         4.021591   -0.659341   -0.396578
Si        -1.455708    0.739733    0.549243
S        -2.667915   -0.600066   -0.603564
H        -3.808829   -0.322906    0.043065
H        -1.657802    2.148688    0.148959
H        -1.828350    0.595261    1.973093
