10
0 1
Si        -0.574363    0.000000    0.375207
Si         1.732228   -0.000002   -0.057248
O        -1.249780   -1.374102   -0.221540
H        -1.014063   -1.693270   -1.093690
O        -1.249776    1.374104   -0.221539
H        -1.014042    1.693283   -1.093681
H         2.388203    1.204179    0.500977
H         1.953634    0.000003   -1.526704
H         2.388201   -1.204186    0.500970
H        -0.915595   -0.000002    1.805337
