7
0 2
Si         0.671822    0.000000   -0.100046
C        -1.196345    0.000000    0.029233
H        -1.621240    0.882503   -0.448471
H        -1.507180   -0.000055    1.076452
H        -1.621252   -0.882446   -0.448565
H         1.261113    1.210966    0.522917
H         1.261118   -1.210964    0.522918
