24
0 1
Si         1.748239   -1.055155    0.475652
Si        -0.202226   -2.149350   -0.203993
C        -1.828607    0.092836    0.351051
O        -1.156086    0.138939    1.357496
C        -1.601741   -0.978906   -0.680878
H        -1.378286   -0.489379   -1.631819
H        -2.532045   -1.531620   -0.838680
H        -0.640810   -3.053784    0.883711
H         0.093631   -2.992125   -1.389586
C         2.120822    0.510644   -0.539345
H         2.914888   -1.948315    0.265571
H         1.704658   -0.706526    1.911076
C         1.026942    1.530142   -0.507460
H         3.052226    0.921183   -0.145809
H         2.276377    0.197853   -1.572002
O         0.162626    1.548986   -1.356127
C        -2.882228    1.120669    0.064754
H        -3.054719    1.737985    0.942493
H        -3.811594    0.652323   -0.260034
H        -2.522064    1.744909   -0.755689
C         1.020454    2.498433    0.641364
H         0.899613    1.947612    1.575787
H         0.199321    3.200920    0.530417
H         1.968467    3.035719    0.693468
