10
0 1
Si         1.127593    0.952721    0.309532
Si        -1.127593    0.952721   -0.309532
S        -2.015578   -0.928562    0.216640
H        -1.268932    1.213962   -1.758713
H        -1.906058    1.957502    0.445529
H        -1.222681   -1.652569   -0.586924
S         2.015578   -0.928562   -0.216640
H         1.268932    1.213962    1.758713
H         1.906057    1.957502   -0.445529
H         1.222682   -1.652569    0.586925
