17
0 1
Si         2.652701    1.015402    0.097522
Si         1.746374   -1.055759   -0.497691
P        -0.933128   -0.105763    0.314471
O        -1.838873   -0.010151   -0.964623
O        -1.866685   -0.847507    1.363038
H        -1.712629   -0.535875    2.261612
O        -0.370446    1.145673    0.822147
O         0.114131   -1.171827   -0.125796
H         2.393954   -2.168179    0.227397
H         1.868156   -1.309728   -1.948604
H         2.056279    2.117787   -0.678775
H         4.091405    0.917448   -0.262347
C        -2.925583    0.918672   -0.995253
H        -3.312347    0.908872   -2.009713
H        -2.575936    1.917726   -0.738416
H        -3.705144    0.604960   -0.301280
H         2.554614    1.256907    1.548825
