19
0 2
Si         3.060195   -0.115989    0.000000
C         1.372039    0.705849   -0.000001
C         0.203857   -0.284357    0.000000
H         1.303938    1.359882   -0.873511
H         1.303938    1.359885    0.873507
C        -1.156357    0.399835   -0.000001
H         0.276004   -0.938719    0.873635
H         0.276004   -0.938722   -0.873632
C        -2.322358   -0.576994    0.000001
H        -1.230256    1.053964   -0.874847
H        -1.230256    1.053967    0.874844
C        -3.676479    0.114775    0.000000
H        -2.244013   -1.229995    0.874068
H        -2.244013   -1.229998   -0.874065
H        -3.792840    0.749491    0.880544
H        -4.494491   -0.606178    0.000001
H        -3.792840    0.749488   -0.880546
H         3.250946   -0.956927    1.209376
H         3.250944   -0.956935   -1.209370
