13
0 1
Si         2.169658    0.283291    0.000010
Si         0.195954   -0.958065   -0.000016
C        -1.273495    0.299091    0.000000
H         0.067525   -1.829873    1.193195
H         0.067530   -1.829827   -1.193262
O        -1.015021    1.481169   -0.000013
H         2.232342    1.129504   -1.209443
H         2.232324    1.129479    1.209481
C        -2.694437   -0.193918    0.000023
H        -2.867500   -0.821659   -0.877026
H        -3.386616    0.646302    0.000020
H        -2.867479   -0.821634    0.877093
H         3.331074   -0.635845    0.000009
