10
0 2
Si         1.452383   -0.292668   -0.085030
C         0.011286    0.906356    0.022140
H         2.702177    0.430225    0.236818
H         1.327880   -1.515916    0.737278
N        -1.234496    0.685287    0.052483
C        -1.734253   -0.662146   -0.030457
H        -2.205131   -0.925982    0.918254
H        -0.971882   -1.413328   -0.270180
H        -2.512193   -0.699965   -0.793667
H         0.305056    1.960052    0.044438
