12
0 2
Si        -1.392635    0.000000    0.109391
N         0.315980    0.000000   -0.086322
H        -1.905868    1.224765   -0.563019
H        -1.905869   -1.224763   -0.563022
C         1.100710   -1.209708    0.005031
H         1.844253   -1.242976   -0.797826
H         0.463043   -2.087274   -0.091820
H         1.636825   -1.279950    0.958868
C         1.100710    1.209708    0.005031
H         0.463044    2.087274   -0.091822
H         1.844255    1.242975   -0.797825
H         1.636824    1.279951    0.958869
