15
0 1
S         1.074696   -1.465320   -0.165580
Si         0.246439    0.439052    0.395972
C         1.471974    1.713113   -0.187890
H         0.167077   -2.202282    0.488581
H         1.119761    2.717640    0.051921
H         1.610380    1.654712   -1.268342
C        -1.440898    0.706501   -0.361502
C        -2.485242   -0.340622    0.019542
H        -1.325769    0.746937   -1.447920
H        -1.777350    1.701785   -0.052609
H        -2.198761   -1.330458   -0.338136
H        -3.460553   -0.109461   -0.409883
H        -2.611274   -0.403746    1.102073
H         2.443040    1.573102    0.286588
H         0.113168    0.476207    1.872500
