14
0 1
Si        -0.983247    0.632353   -0.000001
Si         0.983246   -0.632353   -0.000002
C        -2.516541   -0.446187    0.000003
H        -0.990861    1.517226   -1.192765
H        -0.990855    1.517226    1.192763
H        -2.540502   -1.087431   -0.881565
H        -3.421960    0.161012    0.000006
H        -2.540497   -1.087432    0.881569
C         2.516541    0.446186    0.000002
H         0.990860   -1.517225   -1.192767
H         0.990854   -1.517226    1.192762
H         2.540502    1.087432   -0.881564
H         3.421960   -0.161014    0.000003
H         2.540499    1.087429    0.881570
