15
0 1
S        -1.914892   -0.918128   -0.104371
Si        -0.901230    0.959646    0.125886
C         0.863533    0.696591   -0.417911
H        -3.107889   -0.471812    0.311145
C         1.641043   -0.342409    0.390352
H         1.368314    1.666675   -0.359341
H         0.861496    0.423865   -1.477482
C         3.082818   -0.487951   -0.072042
H         1.139418   -1.310573    0.323479
H         1.623903   -0.069179    1.448794
H         3.127774   -0.794030   -1.118808
H         3.616773   -1.234164    0.517384
H         3.620475    0.457724    0.018777
H        -0.958260    1.393403    1.540476
H        -1.560874    1.995705   -0.699290
