21
0 1
C        -3.405494    0.029771    0.000000
C        -1.968791    0.516571    0.000000
H        -4.092747    0.877145    0.000000
H        -3.611821   -0.576903    0.881610
H        -3.611822   -0.576903   -0.881609
S        -0.827963   -0.910358    0.000000
H        -1.776614    1.125919    0.881962
H        -1.776614    1.125919   -0.881962
Si         1.087137    0.055030    0.000000
C         2.324967   -1.339548   -0.000001
H         2.209203   -1.969788    0.882274
H         3.342817   -0.944753    0.000000
C         1.286273    1.117767   -1.524089
H         1.173567    0.523971   -2.431465
H         2.275629    1.580136   -1.540410
H         0.549060    1.921143   -1.554286
C         1.286273    1.117766    1.524090
H         2.275629    1.580135    1.540410
H         1.173567    0.523969    2.431465
H         0.549061    1.921142    1.554287
H         2.209203   -1.969787   -0.882275
