13
0 2
Si        -2.411993    0.477661    0.094894
P         0.437722   -0.465376   -0.122151
O         0.703071    1.040272    0.267512
O         1.048459   -1.289128    1.091045
H         1.507644   -2.077916    0.782039
O         0.934195   -0.900832   -1.420058
O        -1.107081   -0.553525    0.106587
H        -2.270259    1.432973   -1.029689
H        -3.596955   -0.393466   -0.072227
C         1.998457    1.610881    0.066162
H         1.896514    2.679289    0.230912
H         2.340570    1.418372   -0.949381
H         2.704664    1.194553    0.784446
