10
0 2
Si        -1.372395   -0.213102   -0.088473
C         0.468908    0.179760    0.001489
H        -1.766544   -1.362063    0.759680
H        -2.152411    1.004301    0.235229
N         0.902912    1.373983    0.040354
H         0.150905    2.062990    0.032099
C         1.457154   -0.949760   -0.007504
H         1.282612   -1.623198    0.833968
H         2.469352   -0.553712    0.049786
H         1.352855   -1.542776   -0.918533
