18
0 1
Si         2.244303    0.154013   -0.431192
Si         0.631328   -1.144656    0.648098
H         1.781360    0.491772   -1.795642
H         3.522978   -0.587254   -0.550032
H         2.500729    1.401048    0.319532
C        -1.089813   -0.778152   -0.057121
H         0.631464   -0.889316    2.105230
H         0.863036   -2.594117    0.438641
N        -1.501994    0.416125   -0.173531
O        -0.554396    1.320787    0.299163
C        -2.011653   -1.861152   -0.521238
H        -1.539891   -2.458101   -1.303917
H        -2.936671   -1.435170   -0.906248
H        -2.246905   -2.542590    0.298546
C        -0.998368    2.646650    0.087324
H        -0.214713    3.289388    0.481665
H        -1.932688    2.828191    0.619777
H        -1.139392    2.841907   -0.976616
