18
0 1
Si         0.271911   -0.382181   -0.009461
C        -1.429246   -0.440237   -0.786204
C        -2.528808    0.295783   -0.021447
H        -1.694386   -1.496662   -0.898036
H        -1.349757   -0.046946   -1.803499
H        -2.296989    1.355507    0.089195
H        -2.660003   -0.113506    0.981162
S         0.819743    1.706021   -0.027009
H         1.992559    1.538504    0.598852
C         1.484515   -1.373667   -1.023043
H         2.493637   -1.300208   -0.615170
H         1.514758   -1.018354   -2.053221
H         1.205614   -2.429647   -1.033711
C         0.245622   -1.015411    1.746231
H        -0.072748   -2.059942    1.773526
H        -0.435779   -0.434197    2.367030
H         1.237105   -0.959306    2.198029
H        -3.489161    0.220151   -0.532786
