12
0 1
Si         2.351669   -0.243248   -0.000001
Si         0.253456    0.780784   -0.000001
S        -1.217615   -0.759116    0.000002
H         0.089624    1.648018   -1.191986
H         0.089626    1.648021    1.191981
H         3.404542    0.797552   -0.000004
H         2.511745   -1.085791   -1.204839
C        -2.738342    0.238819    0.000002
H        -3.574708   -0.456044    0.000003
H        -2.796218    0.860736   -0.890353
H        -2.796217    0.860738    0.890354
H         2.511747   -1.085787    1.204839
