10
0 1
Si         1.534797   -0.185579    0.016330
Si        -0.668467    0.591764   -0.023357
H         1.857894   -0.820210    1.314043
H         2.483156    0.928173   -0.217207
H         1.736477   -1.193944   -1.052681
N        -1.731979   -0.757824    0.052603
H        -0.834968    1.459587   -1.221807
H        -0.949073    1.445661    1.153755
H        -1.595757   -1.560897   -0.538150
H        -2.702493   -0.640192    0.292204
