14
0 1
Si         2.154663    0.369537   -0.374532
Si         0.369220   -0.744826    0.643844
B        -1.410801   -0.012797   -0.020721
H         0.505599   -0.580535    2.112846
H         0.493984   -2.197660    0.342331
H         2.094908    0.193888   -1.844611
H         3.462701   -0.134172    0.101743
O        -2.220487   -0.774018   -0.799925
C        -1.883317    1.439339    0.310313
H         2.077275    1.820037   -0.083010
H        -1.898633   -1.662609   -0.975678
H        -1.153815    2.173378   -0.044423
H        -1.945647    1.588259    1.391933
H        -2.852925    1.673565   -0.130359
