12
0 2
Si         1.831717    0.119769   -0.189311
C        -0.943807   -0.220304    0.090530
O        -1.342162   -1.271172   -0.345153
C         0.317068   -0.139200    0.911700
H         0.447366   -1.079827    1.445737
H         0.270106    0.682075    1.628133
H         1.989634   -0.997360   -1.146464
H         1.734998    1.408962   -0.916772
C        -1.671799    1.073951   -0.163484
H        -2.447861    0.921977   -0.908465
H        -0.982038    1.852980   -0.490918
H        -2.127707    1.417119    0.767848
