12
0 1
S        -0.849702   -0.753966   -0.000010
C        -2.236102    0.422659   -0.000001
H        -2.218807    1.047872    0.889998
H        -3.152279   -0.162514   -0.000010
H        -2.218802    1.047891   -0.889987
Si         0.783963    0.613805    0.000009
C         2.360142   -0.374748    0.000000
H         2.421014   -1.010300    0.883414
H         3.224722    0.290287    0.000015
H         2.421022   -1.010271   -0.883433
H         0.699319    1.489859    1.192993
H         0.699322    1.489887   -1.192954
