9
0 1
S         0.549538   -0.738063    0.000000
C         1.632475    0.723706    0.000000
H         1.475105    1.328397   -0.890433
H         2.656756    0.359483    0.000000
H         1.475105    1.328396    0.890434
Si        -1.344673    0.224333    0.000000
H        -2.357101   -0.848860    0.000000
H        -1.505947    1.079349   -1.197132
H        -1.505947    1.079348    1.197132
