30
0 1
C        -1.880510   -0.684963    1.387933
C        -0.625546   -1.229548    1.238158
C        -2.617062   -0.306843    0.269856
C        -2.086192   -0.495297   -0.997800
C        -0.820684   -1.044640   -1.135796
C        -0.075165   -1.406703   -0.028224
H        -0.052980   -1.513845    2.109720
H        -2.314243   -0.538934    2.367625
O        -3.836183    0.231345    0.515367
H        -2.639715   -0.219115   -1.882149
H        -0.403818   -1.181395   -2.123684
S         1.554949   -2.096820   -0.217986
Si         2.710828   -0.289708   -0.168420
C         2.522510    0.626491    1.417932
C         2.288101    0.858595   -1.544967
C         1.328500    1.793273   -1.534606
C         1.583514    1.538455    1.702654
C         0.531130    2.074886    0.865215
C         0.426567    2.180666   -0.470256
H         3.216438    0.388640    2.219170
H         1.565253    1.938352    2.713572
H         2.845959    0.756466   -2.471512
H         1.159182    2.345916   -2.455657
H        -0.282796    2.520193    1.426496
H        -0.458095    2.700361   -0.821442
C        -4.628822    0.621974   -0.582379
H        -4.136358    1.398225   -1.173993
H        -5.549993    1.019420   -0.165397
H        -4.862473   -0.228067   -1.228410
H         4.094283   -0.790014   -0.317949
