18
0 1
Si        -1.166465   -0.956228    0.101287
Si         1.166465   -0.956228   -0.101287
N         1.647304    0.678203    0.139677
H         1.624262   -1.371835   -1.450866
H         1.780936   -1.933447    0.842228
N        -1.647305    0.678202   -0.139680
H        -1.624262   -1.371831    1.450868
H        -1.780935   -1.933450   -0.842225
C         3.014557    1.147500    0.014798
H         1.080785    1.237276    0.757400
H         3.499048    0.640641   -0.821086
H         3.621374    0.964659    0.908534
H         3.039147    2.217482   -0.198505
C        -3.014557    1.147500   -0.014796
H        -1.080790    1.237272   -0.757410
H        -3.499043    0.640645    0.821093
H        -3.621379    0.964654   -0.908528
H        -3.039147    2.217483    0.198502
