19
0 1
C        -2.694951    0.382046   -0.445382
S        -1.740681   -1.160240   -0.184276
Si         0.212543   -0.405410   -0.074892
C         0.683672    1.266299   -0.323295
C         2.044951    1.539320   -0.223228
C         1.619808   -1.396090    0.265284
C         2.843098   -0.739095    0.277767
C         3.051042    0.620421    0.053031
H         4.067503    0.986983    0.098363
H         2.357976    2.568144   -0.373564
H         0.014144    2.086585   -0.540874
H         1.602352   -2.459579    0.458506
H         3.727216   -1.335072    0.483117
C        -2.906229    1.191291    0.817900
H        -3.644742    0.037479   -0.851089
H        -2.207006    0.967135   -1.222378
H        -3.406639    0.597420    1.581598
H        -3.524423    2.064758    0.602499
H        -1.959426    1.540579    1.228263
