18
0 1
Si        -2.853688   -0.305353    0.000000
Si        -0.902777    0.965572   -0.000002
C         0.504664   -0.346082   -0.000002
H        -0.792566    1.845388    1.189889
H        -0.792567    1.845385   -1.189896
O         0.124560   -1.511282    0.000002
N         1.817434   -0.012512    0.000000
H        -2.913833   -1.146136   -1.212357
C         2.294334    1.347325    0.000001
H         1.464094    2.048370   -0.000001
H         2.904520    1.543341   -0.885361
H         2.904516    1.543342    0.885365
H        -4.025622    0.603757   -0.000002
H        -2.913833   -1.146131    1.212361
C         2.829967   -1.046286    0.000002
H         2.338095   -2.013474    0.000000
H         3.462700   -0.959411    0.886382
H         3.462706   -0.959409   -0.886373
