13
0 1
Si        -1.880044   -0.872035    0.000000
Si        -0.661782    1.123844    0.000001
H        -1.580465   -1.668744   -1.208429
H        -3.326809   -0.548184   -0.000006
H        -1.580474   -1.668745    1.208430
N         1.102709    0.797630   -0.000007
H        -0.918755    1.953569    1.198052
H        -0.918764    1.953576   -1.198042
N         1.393015   -0.399232    0.000004
C         2.823435   -0.671586    0.000000
H         3.046690   -1.278124    0.878810
H         3.406782    0.250200   -0.000011
H         3.046683   -1.278140   -0.878801
