15
0 1
S        -0.287087   -0.820502   -0.447709
C         1.049139    0.163298    0.351965
C         2.311527   -0.682240    0.333812
H         3.127599   -0.142462    0.817055
H         2.613580   -0.902791   -0.691275
H         2.165105   -1.626418    0.856043
C         1.257402    1.503126   -0.331124
H         0.745827    0.321792    1.387817
H         0.359153    2.118502   -0.305619
H         1.536831    1.360076   -1.375361
H         2.058003    2.055310    0.165862
Si        -2.027100    0.198653    0.218497
H        -3.170511   -0.628510   -0.212435
H        -2.159505    1.554687   -0.358222
H        -2.011695    0.331603    1.692611
