18
0 1
Si        -0.825485    1.186041    0.831266
Si         0.825484    1.186019   -0.831299
C         2.264941   -0.849807    0.425818
O         1.615623   -1.219633    1.372011
C         1.684551   -0.504866   -0.895901
H         0.892736   -1.210425   -1.154847
H         2.448083   -0.495514   -1.673680
H         1.826623    2.238144   -0.528808
H         0.254149    1.465977   -2.165301
H         3.359246   -0.717456    0.531608
C        -1.684550   -0.504843    0.895916
H        -1.826625    2.238157    0.528747
H        -0.254149    1.466037    2.165260
C        -2.264940   -0.849821   -0.425793
H        -0.892733   -1.210394    1.154880
H        -2.448081   -0.495473    1.673696
O        -1.615621   -1.219665   -1.371979
H        -3.359247   -0.717484   -0.531585
