10
0 2
Si         1.212061   -0.037801   -0.000003
C        -0.527205    0.673055   -0.000034
C        -1.621253   -0.398747    0.000026
H        -0.634943    1.320750   -0.872975
H        -0.634935    1.320840    0.872840
H        -1.550376   -1.039981   -0.879424
H        -2.614920    0.053048    0.000007
H        -1.550368   -1.039891    0.879542
H         1.453729   -0.865618    1.209457
H         1.453704   -0.865786   -1.209353
