21
0 1
Si        -2.033290   -0.919339   -0.156122
Si        -2.255949    1.396725   -0.383914
C        -0.567502   -1.352140    0.954193
H        -1.825437   -1.521722   -1.494882
H        -3.277554   -1.494809    0.412398
C         0.684056   -0.655912    0.506967
C         1.452411   -1.167733   -0.533326
C         1.074380    0.547819    1.083172
C         2.576409   -0.497914   -0.983122
C         2.952844    0.701801   -0.402621
C         2.196929    1.221485    0.633908
H         1.164542   -2.103916   -0.996187
H         3.161627   -0.915780   -1.791789
H         3.830977    1.226338   -0.754269
H         2.482758    2.156152    1.098273
H         0.490945    0.962082    1.896590
H        -2.254544    2.044715    0.949118
H        -3.538072    1.719020   -1.052682
H        -0.435713   -2.435620    0.944869
H        -0.817126   -1.069623    1.978162
H        -1.150228    1.965325   -1.184122
