12
0 1
Si        -1.088135    1.105229    0.506278
Si         0.956640    1.146447   -0.629234
C        -2.020101   -0.477415   -0.039432
O        -3.055800   -0.592937   -0.582805
H        -1.939602    2.255054    0.156178
H        -0.872717    1.008859    1.961102
F        -1.285480   -1.590301    0.268889
C         1.956482   -0.402546   -0.108657
H         1.740811    2.327287   -0.219330
H         0.789612    1.092636   -2.091120
O         2.364536   -1.286349   -0.766191
F         2.178220   -0.397838    1.241673
