14
0 1
Si         0.838294    0.877931   -0.528126
Si         2.367041   -0.716071    0.233922
C        -0.885961    0.421342    0.174977
O        -1.293886    0.783673    1.245740
H         0.783790    0.895274   -2.004691
H         1.160502    2.223545   -0.014945
O        -1.578103   -0.397322   -0.633786
H         3.722497   -0.387810   -0.260476
H         1.983159   -2.053970   -0.266637
H         2.380788   -0.735720    1.712005
C        -2.852487   -0.832233   -0.147047
H        -3.256286   -1.481878   -0.916899
H        -3.506753    0.021898    0.016853
H        -2.735778   -1.372837    0.790431
