21
0 1
S        -2.916468    1.123171   -0.201252
Si        -2.146832   -0.830259    0.236846
H        -2.080893    1.775266    0.618880
C        -0.401148   -1.075174   -0.375314
C         0.624185   -0.120834    0.232626
H        -0.400740   -0.981467   -1.464816
H        -0.121578   -2.111615   -0.156311
C         2.045066   -0.376958   -0.247889
H         0.598187   -0.196035    1.324692
H         0.350096    0.910509   -0.008240
C         3.065814    0.579348    0.349374
H         2.073203   -0.303137   -1.339805
H         2.327189   -1.406894   -0.006314
C         4.482268    0.315738   -0.136527
H         3.032604    0.505174    1.440327
H         2.780112    1.606977    0.106441
H         4.803996   -0.694948    0.121838
H         5.193770    1.013760    0.305453
H         4.549549    0.415005   -1.221559
H        -3.083911   -1.745411   -0.447290
H        -2.199556   -1.067008    1.697263
