8
0 1
Si         1.298681    0.000000   -0.680411
Si        -0.930058    0.000000   -0.004686
Cl        -1.862022    1.658416   -0.734691
Cl         2.192559    1.675813    0.067329
Cl        -1.049526    0.000000    2.024976
Cl         2.192559   -1.675813    0.067329
Cl        -1.862022   -1.658416   -0.734691
H         1.442980    0.000000   -2.142932
