7
0 2
Si         1.682698   -0.096068   -0.000005
O         0.129469   -0.807391   -0.000025
H         1.878546    0.687201   -1.235919
H         1.878562    0.687108    1.235964
N        -0.957270    0.053760    0.000001
O        -0.686757    1.228954    0.000014
O        -2.019461   -0.472272    0.000014
