22
0 1
Si        -0.543783    1.751219   -0.045500
Si         1.702520    1.130962    0.196470
C         1.813521   -0.752799    0.012083
H         2.223078    1.442537    1.549760
H         2.567258    1.805600   -0.794689
N         1.305789   -1.328634   -0.997141
O         0.800044   -0.388480   -1.901415
H         0.257181   -0.905856   -2.504843
C        -1.605527    0.257166    0.363008
H        -0.839733    2.244212   -1.402436
H        -0.868041    2.809533    0.944274
N        -2.360342   -0.149859   -0.573795
O        -3.096908   -1.278004   -0.203766
H        -3.627639   -1.456491   -0.986011
C         2.421473   -1.631299    1.059032
H         1.938543   -1.468622    2.024508
H         3.479355   -1.396820    1.190336
H         2.321681   -2.679541    0.782140
C        -1.525785   -0.416708    1.700264
H        -1.166594   -1.440275    1.581525
H        -2.514253   -0.476813    2.156416
H        -0.858477    0.115170    2.377123
