10
0 1
Si        -1.674575   -0.435539   -0.000001
Si         0.152141    1.016931   -0.000006
C         1.760257   -0.038916    0.000004
H         0.197366    1.892341    1.195637
H         0.197371    1.892326   -1.195661
H        -1.641070   -1.283220    1.209454
H        -1.641066   -1.283234   -1.209445
H        -2.926641    0.354161   -0.000008
O         1.727134   -1.243778    0.000011
H         2.749509    0.471852    0.000004
