18
0 1
S         0.453357   -1.028002   -0.003607
C        -1.010207    0.116411    0.000956
C        -2.209673   -0.793584   -0.240804
H        -3.126630   -0.201317   -0.222853
H        -2.284443   -1.559701    0.530839
H        -2.139237   -1.288555   -1.208932
C        -1.138351    0.798635    1.356102
H        -0.283084    1.439466    1.566649
H        -1.217352    0.064151    2.156305
H        -2.035677    1.421863    1.370600
Si         2.165125    0.230918    0.001357
C        -0.906246    1.146008   -1.114678
H        -0.764400    0.665951   -2.081994
H        -0.080034    1.838870   -0.953860
H        -1.824688    1.736022   -1.153744
H         3.298586   -0.696435    0.183821
H         2.138449    1.214192    1.106390
H         2.339907    0.975852   -1.263957
