8
0 1
Si        -1.517863   -0.137866    0.000000
Si         0.726485    0.515554    0.000000
H         1.062182    1.306728   -1.203282
H        -2.360785    1.079917    0.000000
F         1.663229   -0.789743    0.000000
H        -1.826674   -0.936655    1.205871
H         1.062182    1.306728    1.203282
H        -1.826674   -0.936655   -1.205871
