15
0 1
Si        -2.502632   -0.469446   -0.395119
Si        -0.795910    0.938469    0.343373
C         0.837665   -0.060534    0.304021
H        -1.010444    1.373144    1.739670
H        -0.680997    2.149489   -0.510722
O         0.866457   -1.131300    0.888587
N         1.895550    0.438001   -0.378130
H        -2.167723   -0.982408   -1.742226
C         3.167305   -0.246720   -0.470053
H         3.046368   -1.229029   -0.022223
H         3.947919    0.292055    0.069110
H         3.469063   -0.361733   -1.511170
H        -3.772945    0.286658   -0.481329
H        -2.675228   -1.602183    0.535786
H         1.793241    1.335601   -0.818043
