18
0 1
Si         2.380791   -0.463518    0.480219
Si         0.836927    0.936892   -0.565402
H         1.771630   -1.021429    1.708691
H         3.585303    0.304885    0.883608
H         2.807211   -1.557961   -0.413131
N        -0.819229    0.603824   -0.020280
H         0.921934    0.859521   -2.039042
H         1.018992    2.358593   -0.179397
C        -1.148082   -0.703463   -0.174475
O        -0.312429   -1.463588   -0.648591
C        -2.510431   -1.176320    0.243417
H        -3.292498   -0.628191   -0.282805
H        -2.662011   -1.018057    1.311886
H        -2.593139   -2.234806    0.019400
C        -1.745419    1.584102    0.518887
H        -1.238603    2.541810    0.600884
H        -2.094729    1.304775    1.514034
H        -2.614525    1.719641   -0.127849
