13
0 2
Si        -0.000008   -0.000002   -0.426131
C         1.578378   -0.817983    0.176747
H         1.650994   -1.848596   -0.171478
H         1.604701   -0.831633    1.270615
C        -0.080781    1.775887    0.176816
H         0.775499    2.354060   -0.171325
H        -0.082193    1.805440    1.270684
H        -0.985960    2.273967   -0.171425
C        -1.497585   -0.957904    0.176820
H        -1.522421   -0.974045    1.270689
H        -1.476428   -1.990808   -0.171553
H        -2.426426   -0.505322   -0.171210
H         2.462279   -0.283034   -0.171460
