11
0 1
Si         2.424741    0.137745   -0.526934
Si         0.623978   -0.647675    0.735361
C        -0.910565    0.417560    0.270500
H         0.834301   -0.455425    2.184679
H         0.325470   -2.069598    0.456845
O        -0.925367    1.601835    0.469331
H         3.627856   -0.669015   -0.226480
H         2.685876    1.553559   -0.198182
S        -2.272718   -0.449863   -0.492408
H         2.104059    0.012134   -1.964926
H        -3.029799    0.645131   -0.669053
