9
0 1
Si        -1.853885   -0.360731   -0.000015
Si         0.134208    0.863490   -0.000007
H        -1.926783   -1.215037   -1.204999
H        -3.002087    0.573124   -0.000046
H        -1.926817   -1.214998    1.204995
S         1.736446   -0.561883    0.000021
H         0.210977    1.733105    1.195275
H         0.210999    1.733085   -1.195302
H         2.726063    0.342224    0.000034
