12
0 2
Si         2.420857   -0.557698    0.115951
C         0.789576    0.352018   -0.234062
H         3.500634    0.427882    0.302058
H         2.286869   -1.519985    1.226898
O         0.697128    1.476114   -0.610874
O        -0.302348   -0.494512   -0.108691
C        -1.566964   -0.002482    0.186672
O        -1.738266    0.978102    0.829937
C        -2.613966   -0.911080   -0.367905
H        -2.412493   -1.939096   -0.070071
H        -2.579350   -0.872275   -1.457080
H        -3.591647   -0.597126   -0.016321
