8
0 1
Si         1.177786   -0.957470   -0.396123
Si        -0.731106    0.033598    0.505319
Cl        -2.344903   -1.113984   -0.037295
H         1.330287   -2.336774    0.104394
Cl        -0.939177    1.920846   -0.261380
H         1.104100   -0.952379   -1.868360
H        -0.729439    0.142691    1.972226
Cl         2.815935    0.139060    0.196498
