12
0 1
Si        -2.048398   -1.037673    0.544791
Si        -2.047971    1.038509   -0.544791
N        -0.517483    1.749141   -0.234067
H        -3.099464    1.939080   -0.032290
H        -2.201012    0.884330   -2.005121
C         0.619801    1.972702    0.013622
S         2.118229    2.285262    0.340624
N        -0.518203   -1.748936    0.234066
H        -3.100262   -1.937811    0.032290
H        -2.201376   -0.883431    2.005120
C         0.618990   -1.972955   -0.013622
S         2.117292   -2.286124   -0.340624
