18
0 1
Si        -1.179633    1.753439    0.028228
Si         1.179624    1.753438   -0.028224
P         1.792728   -0.416770    0.057469
H         1.730590    2.425299    1.165034
H         1.688446    2.385381   -1.261189
O         1.448333   -1.091189   -1.317338
O         3.377511   -0.410304    0.090917
H         0.458695   -1.222134   -1.414963
H         3.775187   -1.270631    0.278826
O         1.162181   -1.075314    1.230170
P        -1.792727   -0.416771   -0.057472
H        -1.730598    2.425303   -1.165028
H        -1.688454    2.385378    1.261195
O        -1.448327   -1.091196    1.317331
H        -0.458689   -1.222146    1.414953
O        -3.377510   -0.410314   -0.090915
H        -3.775186   -1.270655   -0.278757
O        -1.162175   -1.075304   -1.230176
