12
0 1
S         1.668963    0.040110   -0.156972
Si        -0.403767   -0.009974    0.412138
C        -1.134003    1.576310   -0.232600
H         1.993227   -1.122726    0.424592
H        -1.045358    1.633519   -1.318289
H        -0.633397    2.444730    0.195530
C        -1.258743   -1.507022   -0.293390
H        -2.310073   -1.521306    0.001544
H        -0.799481   -2.429260    0.064058
H        -1.207333   -1.505724   -1.382616
H        -2.193166    1.637664    0.022630
H        -0.498621   -0.054753    1.890116
