14
0 1
Si        -1.086806   -0.862599   -0.491878
Si         1.080721   -0.879496    0.395837
C         1.825959    0.852502    0.267725
H         1.962778   -1.801755   -0.356828
H         1.020629   -1.293088    1.817064
N         2.797161    1.196856   -0.468331
H         1.374627    1.652640    0.863866
H         3.173099    0.407151   -0.996366
C        -2.142001    0.370410    0.477835
H        -1.684827   -2.214456   -0.403445
H        -1.061039   -0.412187   -1.902765
N        -2.531416    1.505287    0.073264
H        -2.433078    0.106085    1.500281
H        -2.230969    1.692476   -0.885115
