16
0 1
Si         2.579925   -1.156453    0.154570
Si         1.648306    0.867407   -0.553496
H         3.948564   -1.281492   -0.392662
H         1.752309   -2.276118   -0.341543
H         2.634567   -1.194101    1.630219
C        -0.120469    0.963767    0.178428
H         1.541283    0.918352   -2.026258
H         2.385686    2.040679   -0.048685
O        -0.460679    1.595156    1.125090
O        -1.006971    0.175241   -0.546994
C        -2.098269   -0.424771    0.065628
O        -2.070450   -0.797604    1.191010
C        -3.225186   -0.567960   -0.902627
H        -2.869272   -1.024136   -1.825309
H        -3.606234    0.422734   -1.152690
H        -4.013793   -1.167840   -0.459539
