8
0 1
Si        -1.354308   -0.118499   -0.000002
Si         0.904576    0.429598   -0.000003
F         1.244708    1.297398    1.272513
F         1.244714    1.297368   -1.272537
F        -2.257457    1.170215   -0.000036
F        -1.714111   -0.969316   -1.274265
Cl         2.062511   -1.223121    0.000019
F        -1.714124   -0.969257    1.274296
