11
0 1
Si        -0.194970    1.110558    0.236227
Si        -1.792823   -0.553607   -0.138723
O         1.315055    0.696644   -0.439177
H         0.011139    1.379804    1.674015
H        -0.505870    2.375140   -0.456724
C         1.833931   -0.501750   -0.209719
H        -3.121564    0.088143   -0.278731
H        -1.836712   -1.510551    0.982648
H        -1.475906   -1.257506   -1.400225
O         1.303285   -1.351443    0.448076
H         2.807721   -0.623448   -0.698919
