17
0 1
Si         2.257562    0.161954   -0.481341
Si         0.483669   -0.491323    0.892920
C        -1.176676   -0.371961   -0.054102
H         0.475617    0.304852    2.140692
H         0.659155   -1.914484    1.263152
H         2.235572   -0.635354   -1.728693
H         3.556690   -0.052746    0.195160
N        -1.812638    0.684818   -0.328824
H         2.138346    1.593570   -0.836976
C        -1.738928   -1.681629   -0.534765
H        -1.009469   -2.214703   -1.149838
H        -2.640968   -1.504603   -1.117234
H        -1.972357   -2.333981    0.309445
C        -1.328272    1.978118    0.078689
H        -1.198070    2.600194   -0.808060
H        -0.384311    1.966193    0.635422
H        -2.085718    2.461323    0.697662
