7
0 2
Si        -1.641868   -0.417765   -0.088296
C         0.040320    0.476453    0.001445
H        -1.572294   -1.780533    0.481382
H        -2.682796    0.425698    0.529339
O         0.122157    1.674284    0.014332
S         1.478576   -0.591580    0.007643
H         2.364843    0.415841   -0.020193
