14
0 2
Si         2.366053   -0.000001   -0.079516
C         0.516597    0.000001   -0.008942
C        -0.202572    1.197907   -0.007837
C        -1.585191    1.198903    0.006777
C        -0.202571   -1.197906   -0.007839
C        -1.585190   -1.198904    0.006776
C        -2.279938   -0.000001    0.013982
H        -3.361840   -0.000001    0.025893
H        -2.123908    2.137359    0.014285
H         0.326330    2.143476   -0.010891
H         0.326332   -2.143474   -0.010893
H        -2.123906   -2.137360    0.014283
H         2.932721    1.225028    0.531513
H         2.932720   -1.225019    0.531537
