10
0 1
Si        -1.451284    0.238652    0.000003
Si         0.722971   -0.651334   -0.000008
H        -1.667630    1.076846    1.200692
H        -2.449046   -0.854317   -0.000009
H        -1.667631    1.076874   -1.200666
B         1.940600    0.923599    0.000011
H         0.856111   -1.506480   -1.203616
H         0.856111   -1.506509    1.203579
H         2.282735    1.436575   -1.018207
H         2.282735    1.436551    1.018241
