12
0 1
S        -1.584950   -0.657624   -0.107334
Si        -0.168730    0.932973    0.158126
C         1.471992    0.314087   -0.480135
H        -2.619456    0.000610    0.432543
C         2.024293   -0.904926    0.258436
H         2.176397    1.148306   -0.412481
H         1.364904    0.098460   -1.546327
H         2.153127   -0.700246    1.322266
H         2.994719   -1.202281   -0.140072
H         1.355807   -1.761791    0.171657
H        -0.075986    1.287706    1.592777
H        -0.605808    2.134642   -0.586603
