8
0 1
Si         1.161498   -0.000003    0.000003
Si        -1.161498    0.000002   -0.000002
F        -1.716663   -0.422476    1.409941
F         1.716659    0.422478   -1.409942
F        -1.716704   -1.009794   -1.070836
F         1.716660   -1.432295    0.339074
F        -1.716658    1.432295   -0.339076
F         1.716706    1.009793    1.070837
