19
0 1
Si         2.691710   -0.785195    0.489976
Si         1.560539    1.049533   -0.404191
H         1.968346   -1.267017    1.687333
H         4.051649   -0.369334    0.915714
H         2.823570   -1.872298   -0.498216
O        -0.085816    1.027792   -0.001230
H         1.693537    1.134833   -1.873447
H         1.991634    2.335330    0.183720
C        -0.741252   -0.120496   -0.238824
O        -0.157822   -1.085271   -0.702167
N        -2.048588   -0.089112    0.079988
C        -2.716698    1.066216    0.635475
H        -2.019856    1.889129    0.734931
H        -3.128969    0.827510    1.618959
H        -3.540100    1.372783   -0.014025
C        -2.856488   -1.270523   -0.123699
H        -2.238561   -2.055149   -0.546079
H        -3.681159   -1.052082   -0.805989
H        -3.275736   -1.612001    0.825650
