30
0 1
Si        -1.174306    2.256271   -0.027372
Si         1.174307    2.256271    0.027370
C         1.727088    0.472697   -0.087318
H         1.694257    2.792268    1.307432
H         1.734885    3.074870   -1.072356
C         1.320956   -0.301502   -1.170029
C         2.407837   -0.169209    0.941408
C         2.663994   -1.530186    0.906054
C         2.232581   -2.275582   -0.178657
C         1.562851   -1.664197   -1.222384
H         2.731294    0.409364    1.798179
H         3.197351   -2.006395    1.717561
C        -1.727087    0.472697    0.087317
H        -1.694256    2.792267   -1.307434
H        -1.734885    3.074871    1.072353
C        -1.320959   -0.301501    1.170030
C        -2.407833   -0.169210   -0.941410
C        -2.663989   -1.530187   -0.906055
C        -2.232580   -2.275582    0.178658
C        -1.562853   -1.664195    1.222387
H        -2.731287    0.409362   -1.798183
H        -3.197343   -2.006398   -1.717563
O         0.663097    0.351645   -2.169961
O        -0.663104    0.351648    2.169963
H         2.419564   -3.340626   -0.216536
H        -2.419563   -3.340626    0.216539
H         1.222128   -2.243626   -2.072257
H        -1.222133   -2.243623    2.072261
H         0.249017   -0.278954   -2.766870
H        -0.249025   -0.278950    2.766875
