9
0 2
Si         1.590604   -0.300801    0.031102
S        -0.497921    0.261221   -0.474571
H         2.414393    0.811397   -0.498424
H         1.618990   -0.295751    1.515329
O        -0.736601    1.383934    0.489833
C        -1.323654   -1.192977    0.204908
H        -1.101711   -2.057633   -0.419719
H        -2.390696   -0.979553    0.179496
H        -1.007960   -1.360390    1.232906
