9
0 2
Si         1.534028   -0.196649   -0.022656
C        -1.198322    0.151357    0.386948
O        -1.988883   -0.542075   -0.192588
C        -0.038680    0.831899   -0.262293
H         0.127958    1.810067    0.192343
H        -0.228749    0.943466   -1.329437
H         1.848532   -0.338163    1.418941
H         1.390525   -1.527366   -0.653730
H        -1.281581    0.302143    1.481835
