16
0 1
Si         1.054138   -1.252309    0.523057
Si        -1.049496   -1.251151   -0.498095
B        -2.060917    0.441843    0.003038
H        -1.796282   -2.480770   -0.146970
H        -0.801858   -1.277306   -1.963360
B         2.043903    0.440484   -0.000390
H         1.879129   -2.430775    0.150316
H         0.911165   -1.269120    2.000735
O        -1.477120    1.652593    0.172562
H        -0.512313    1.687762    0.072034
O        -3.407369    0.345748    0.170045
H        -3.806049    1.194679    0.399287
O         3.363729    0.536223   -0.311530
H         3.851953   -0.288994   -0.266635
O         1.325049    1.606701   -0.067442
H         1.860026    2.371199   -0.317191
