14
0 1
Si        -2.096386    0.346460   -0.327759
Si        -0.252985   -0.763797    0.587608
C         1.370551   -0.033089   -0.078548
H        -0.273143   -2.199501    0.222757
H        -0.290597   -0.634876    2.063795
H        -2.038602    1.785075    0.017618
H        -3.358616   -0.217904    0.199743
N         2.149988   -0.669671   -0.851004
H        -2.089487    0.213143   -1.801414
H         1.810445   -1.610350   -1.049327
C         1.733756    1.369400    0.313708
H         0.955698    2.071784    0.005190
H         2.677387    1.652027   -0.149374
H         1.822351    1.453157    1.399187
