19
0 1
Si         2.304445   -0.031117    0.535801
S         1.098915   -1.045699   -0.913923
C        -0.500136   -0.454442   -0.385584
C        -1.146742   -1.039986    0.694968
C        -2.393719   -0.585415    1.087500
C        -1.117985    0.580364   -1.075053
C        -2.367544    1.028392   -0.682334
C        -3.006876    0.449123    0.400761
H        -3.982753    0.801056    0.707249
H        -2.889328   -1.045787    1.931905
H        -0.668679   -1.852640    1.224391
H        -0.613747    1.031508   -1.918458
H        -2.841996    1.834714   -1.225822
C         2.092481    1.815235    0.455554
H         2.374168    2.197555   -0.525427
H         2.716278    2.301412    1.207725
H         1.055411    2.091966    0.645993
H         3.688397   -0.436673    0.207997
H         1.960496   -0.515917    1.891143
