30
0 1
Si         0.922283    2.417378    0.724656
Si        -0.922284    2.417377   -0.724655
C        -1.869403    0.835808   -0.407636
H        -0.437674    2.451539   -2.125075
H        -1.812615    3.577970   -0.490918
C        -1.357766   -0.383626   -0.846538
C        -3.014999    0.831905    0.382819
C        -3.625581   -0.364550    0.726181
C        -3.096539   -1.570885    0.310289
C        -1.951232   -1.577352   -0.472358
H        -3.435201    1.764859    0.735673
H        -4.520660   -0.358104    1.334343
C         1.869403    0.835809    0.407636
H         0.437673    2.451538    2.125076
H         1.812614    3.577970    0.490919
C         1.357767   -0.383626    0.846539
C         3.014998    0.831906   -0.382821
C         3.625580   -0.364549   -0.726183
C         3.096539   -1.570884   -0.310291
C         1.951233   -1.577351    0.472358
H         3.435198    1.764861   -0.735676
H         4.520658   -0.358102   -1.334347
O        -1.439024   -2.788164   -0.823622
O         1.439026   -2.788164    0.823623
H        -3.551675   -2.513118    0.583091
H         3.551675   -2.513116   -0.583093
H        -0.464395   -0.413107   -1.460755
H         0.464397   -0.413107    1.460758
H        -0.605107   -2.675827   -1.292266
H         0.605111   -2.675827    1.292270
