14
0 2
Si         0.311857    1.594552    0.000000
C        -0.203283    0.666019    1.496701
C        -0.203283    0.666019   -1.496701
C        -0.203283   -0.669837   -1.637168
C        -0.203283   -0.669837    1.637168
C         0.157419   -1.691031    0.672586
C         0.157419   -1.691031   -0.672586
H        -0.497307    1.239896    2.371030
H        -0.477592   -1.074414    2.607679
H        -0.497307    1.239896   -2.371030
H        -0.477592   -1.074414   -2.607679
H         0.410176   -2.642510    1.128596
H         0.410176   -2.642510   -1.128596
H        -0.246770    2.968511    0.000000
