7
0 2
Si        -1.541407   -0.461341   -0.084801
C         0.140878    0.335333    0.008649
H        -1.552069   -1.834438    0.439515
H        -2.584763    0.413372    0.509699
S         1.466412   -0.601666    0.008350
O         0.252786    1.674534   -0.000197
H        -0.613619    2.098215    0.054079
