8
0 1
Si         1.323560    0.000000   -0.409281
Si        -0.976985    0.000000    0.002503
F        -1.658712    1.271787   -0.635426
F         1.946259   -1.283645    0.281539
F        -1.303222   -0.000011    1.543733
F         1.946259    1.283644    0.281539
F        -1.658714   -1.271775   -0.635446
H         1.701110    0.000000   -1.828552
