8
0 2
Si        -1.349676   -0.264295   -0.089795
N         0.024992    0.821198    0.038238
H        -1.273790   -1.314025    0.947993
H        -2.521510    0.621641    0.113361
C         1.306815    0.359944    0.028859
O         1.585957   -0.810670   -0.051199
H         2.075526    1.146773    0.105283
H        -0.088252    1.823048    0.059269
