14
0 1
Si        -1.570605   -0.352282   -0.413388
S         0.349329   -1.121440    0.224521
C         1.315755    0.348192   -0.092177
C         2.780620    0.195553    0.200702
C        -2.208338    0.993070    0.695517
H        -2.269624    0.647689    1.727436
H        -3.208131    1.293958    0.377047
H        -1.555407    1.862530    0.652648
O         0.822988    1.361727   -0.507262
H         3.205456   -0.574741   -0.443331
H         2.925375   -0.123618    1.232654
H         3.282507    1.143730    0.026418
H        -2.419886   -1.560268   -0.322436
H        -1.473214    0.071003   -1.821492
