13
0 1
Si         0.975566    0.002934    0.032947
Si        -1.320935   -0.077247    0.437651
O         1.342130    1.465667   -0.616651
H         0.648061    2.130184   -0.589487
O        -2.032029   -1.370094   -0.284772
H        -1.625558   -1.729575   -1.076171
O         1.458713   -1.112740   -1.076211
H         1.709101   -0.768805   -1.936865
O        -1.783464    1.370741   -0.219511
H        -2.696953    1.653936   -0.137313
O         1.751854   -0.301247    1.433840
H         2.687051   -0.517886    1.420769
H        -1.784171   -0.146083    1.837128
