15
0 1
Si        -2.071178   -0.795138   -0.254371
Si        -0.855437    1.141339    0.211219
H        -1.433962   -1.517224   -1.377155
H        -3.445914   -0.423199   -0.673061
H        -2.166866   -1.668639    0.930171
N         0.833421    0.936270   -0.252955
H        -0.949290    1.513217    1.639957
H        -1.291910    2.306529   -0.593523
C         1.475388   -0.207175    0.109765
O         0.886689   -1.053703    0.757788
H         1.347012    1.618917   -0.785266
C         2.898716   -0.378774   -0.346476
H         2.909281   -0.630907   -1.408159
H         3.356754   -1.190078    0.210747
H         3.475422    0.536008   -0.210932
