19
0 1
Si        -1.955794   -0.819926   -0.546453
Si        -2.634005    1.068764    0.663826
O        -0.432152   -1.311999   -0.124960
H        -2.033937   -0.540647   -2.001103
H        -2.814782   -1.980584   -0.243257
H        -4.089735    1.254342    0.458377
H        -1.937450    2.291593    0.208801
C         0.723131   -0.595119   -0.094076
H        -2.376127    0.876931    2.108044
C         1.754930   -1.069748    0.702799
C         0.893615    0.567118   -0.831907
C         2.948861   -0.377219    0.763415
C         3.125076    0.789789    0.035287
C         2.094068    1.255281   -0.760192
H         1.600063   -1.979569    1.265960
H         3.749466   -0.751808    1.387486
H         4.060427    1.329590    0.087192
H         2.219995    2.161858   -1.337097
H         0.098395    0.929932   -1.469899
