9
0 2
Si        -1.705697   -0.074030   -0.066216
N         0.022946    0.300970    0.079293
H        -2.051081   -0.659607    1.254713
H        -2.354282    1.256040   -0.180419
N         0.953537   -0.417304   -0.250337
C         2.271741    0.105939    0.092764
H         2.851941    0.170902   -0.828367
H         2.759487   -0.628389    0.734867
H         2.207858    1.076177    0.586958
