11
0 2
Si         1.850789   -0.387556   -0.000003
C         0.031849    0.238234    0.000023
H         2.504914    0.151984   -1.213565
H         2.504936    0.151959    1.213558
O        -0.112821    1.447557    0.000004
N        -0.991960   -0.639883   -0.000002
C        -2.382618   -0.237269   -0.000011
H        -0.764034   -1.618856   -0.000003
H        -2.414170    0.848422   -0.000095
H        -2.895885   -0.607322    0.887997
H        -2.895906   -0.607465   -0.887946
