14
0 1
Si         1.148786    1.604427   -0.366869
Si        -1.155934    1.649522   -0.007758
C        -1.742402   -0.127406   -0.319204
H        -1.844657    2.506692   -0.996092
H        -1.524978    2.094571    1.353033
S        -1.217577   -0.861506   -1.670580
S        -2.782865   -0.808346    0.865492
C         1.744442   -0.044999    0.340357
H         1.843933    2.675225    0.378626
H         1.504491    1.720377   -1.799475
S         1.275468   -0.410038    1.853515
S         2.741889   -1.114381   -0.572682
H        -2.956372   -2.006642    0.278688
H         2.794782   -0.402752   -1.708845
