11
0 1
S         0.441549   -0.192381    0.000002
O         0.774511   -0.834217   -1.249860
O         0.774506   -0.834200    1.249874
C         1.224411    1.403008   -0.000007
H         0.944444    1.944412   -0.900714
H         2.295274    1.201960   -0.000004
H         0.944440    1.944425    0.900691
Si        -1.750000    0.161975   -0.000004
H        -2.318436   -1.193442    0.000004
H        -2.084548    0.921182   -1.217825
H        -2.084552    0.921199    1.217805
