20
0 1
Si        -1.051758   -1.261434   -0.501411
Si         1.059424   -1.209089    0.506033
B         2.105135    0.475227   -0.002293
H         1.811193   -2.448674    0.185163
H         0.830012   -1.223358    1.977349
O         1.473450    1.655206   -0.175509
C         3.658567    0.436283   -0.193800
H         3.919416   -0.236249   -1.016708
H         4.154773    0.022047    0.688216
H         4.077842    1.421123   -0.404016
B        -2.093953    0.413908   -0.014998
H        -1.826006   -2.475182   -0.139151
H        -0.892592   -1.278075   -1.980339
O        -1.339342    1.551404    0.100050
C        -3.637194    0.461855    0.227395
H        -4.174350    0.057267   -0.634176
H        -4.031732    1.459861    0.438683
H        -3.899639   -0.190724    1.065026
H         0.508454    1.645307   -0.070459
H        -1.841717    2.346598    0.314264
