12
0 1
Si        -0.487428   -1.066858    0.039388
Si         0.487419    1.066840    0.039399
S         2.566067    0.817799   -0.597625
H         0.469489    1.689881    1.372707
H        -0.078286    1.958023   -0.987404
C         2.839230   -0.566703    0.328405
N         2.989199   -1.521792    0.950683
S        -2.566084   -0.817804   -0.597607
H        -0.469482   -1.689920    1.372685
H         0.078262   -1.958024   -0.987438
C        -2.839212    0.566723    0.328395
N        -2.989156    1.521829    0.950652
