7
0 2
Si        -0.671822    0.000000   -0.100046
C         1.196345    0.000000    0.029233
H        -1.261117   -1.210965    0.522917
H        -1.261115    1.210966    0.522917
H         1.621250   -0.882456   -0.448550
H         1.507181   -0.000037    1.076452
H         1.621242    0.882494   -0.448486
