10
0 1
Si        -1.655029   -0.417911   -0.000003
Si         0.212727    0.990510   -0.000004
H        -1.668686   -1.266445   -1.209586
H        -2.874938    0.423829   -0.000015
H        -1.668699   -1.266431    1.209589
N         1.745143    0.041590    0.000001
H         0.289108    1.853027    1.199288
H         0.289111    1.853022   -1.199299
N         1.584954   -1.181246    0.000014
H         2.515667   -1.635812    0.000017
