18
0 1
Si         2.787518    0.248775    0.000002
Si         0.881705   -1.096296    0.000019
B        -0.782079    0.072333   -0.000026
H         0.906469   -1.991079    1.186942
H         0.906508   -1.991148   -1.186853
H         2.807196    1.112540   -1.202089
H         4.023164   -0.569536    0.000036
O        -2.069152   -0.354139   -0.000043
O        -0.551463    1.408085   -0.000015
C        -2.466657   -1.709137    0.000038
H        -3.070557   -1.901803   -0.886152
H        -3.068966   -1.902243    0.887220
H        -1.610508   -2.385568   -0.000906
C        -1.620762    2.344183   -0.000018
H        -1.181191    3.338612    0.000018
H        -2.244311    2.219685    0.885331
H        -2.244262    2.219730   -0.885409
H         2.807172    1.112602    1.202048
