15
0 2
Si         2.616752   -0.473678   -0.080063
C         0.846888    0.063145   -0.006923
H         3.514180    0.528012    0.539931
H         2.800359   -1.816329    0.520136
C        -0.183677   -0.878567   -0.009682
C         0.513414    1.417861   -0.004392
C        -0.814190    1.810579    0.006965
C        -1.828627    0.872429    0.009367
C        -1.508351   -0.477910    0.001297
H         1.292418    2.169391   -0.003922
H        -1.064526    2.863315    0.015710
O        -2.538648   -1.364797    0.007828
H        -2.869640    1.164100    0.018805
H         0.046921   -1.939378   -0.011771
H        -2.197800   -2.264466   -0.000423
