14
0 1
Si        -1.089212   -1.266152   -0.689264
Si         0.814323   -1.128972    0.666983
C         1.830257    0.369397    0.002381
H         1.660491   -2.340057    0.619585
H         0.477170   -0.810353    2.069170
O         1.279674    1.384743   -0.346311
S         3.590076    0.169831   -0.062847
H         3.838768    1.404210   -0.531097
C        -2.468898   -0.106778   -0.011372
H        -1.642925   -2.632688   -0.705399
H        -0.718776   -0.834307   -2.053472
O        -3.541497   -0.552981    0.293799
S        -2.151032    1.636436    0.163895
H        -0.864556    1.614835   -0.229594
