16
0 1
Si        -0.936858   -0.938767   -0.248526
Si         1.347908   -0.911698    0.270080
O        -1.543031    0.515956    0.237925
H        -1.644003   -2.049552    0.445841
H        -1.188276   -1.123934   -1.702667
C        -2.899057    0.881034    0.090393
H        -3.027324    1.889627    0.480358
H        -3.552675    0.204515    0.648302
H        -3.199065    0.870900   -0.961422
O         2.103518    0.387707   -0.390861
H         2.013825   -2.109671   -0.282937
H         1.506923   -0.909159    1.748130
C         1.826438    1.726751   -0.029674
H         2.422053    2.378166   -0.667016
H         2.096953    1.914352    1.013176
H         0.768717    1.965246   -0.164353
