21
0 1
C         1.291899    2.107163   -0.096873
Si         2.006497    0.422182    0.264222
H         1.906592    2.884547    0.361216
H         0.276972    2.208486    0.285899
H         1.265443    2.285346   -1.172211
S         0.967916   -1.193225   -0.665332
C        -0.346224   -1.560838    0.554055
C        -1.372804   -0.465266    0.788983
H         0.133083   -1.840297    1.490846
H        -0.832255   -2.453373    0.159123
C        -2.145159   -0.037754   -0.448122
H        -0.885047    0.404888    1.236932
H        -2.075668   -0.831093    1.544767
C        -3.161688    1.052902   -0.151431
H        -2.650957   -0.909934   -0.872692
H        -1.444001    0.305646   -1.210451
H        -3.891929    0.724260    0.590647
H        -3.707834    1.342891   -1.049198
H        -2.673896    1.947261    0.241858
H         2.020854    0.179925    1.726507
H         3.384891    0.355258   -0.266725
