7
0 2
Si        -1.621870   -0.443121   -0.088691
C         0.038528    0.488682    0.003128
H        -1.541673   -1.778960    0.542890
H        -2.699000    0.398126    0.467294
O         0.080366    1.687820    0.019988
S         1.566909   -0.449138    0.001973
H         1.002207   -1.663925    0.021248
