14
0 2
Si         1.633814   -1.136333   -0.070544
B        -0.107693   -0.142911    0.009640
H         2.837558   -0.482503    0.492489
H         1.595356   -2.563767    0.309314
O        -1.227909   -0.903585    0.008344
O        -0.237556    1.209182    0.006863
C        -2.518221   -0.309822    0.006305
H        -3.246587   -1.116927   -0.011621
H        -2.652463    0.323672   -0.870808
H        -2.667450    0.296786    0.899810
C         0.865245    2.094368   -0.002980
H         0.483036    3.097916   -0.175824
H         1.568241    1.842506   -0.799388
H         1.388956    2.073480    0.953831
