10
0 2
Si         1.486862   -0.161494   -0.064220
B        -0.495318    0.110226   -0.001736
H         2.054054   -1.461167    0.353601
H         2.371134    0.955390    0.348842
O        -1.024325    1.363596    0.007308
C        -1.492717   -1.094744    0.003696
H        -1.566506   -1.494458    1.020438
H        -1.163002   -1.923444   -0.624719
H        -2.494671   -0.791239   -0.303265
H        -0.389583    2.084400    0.032213
