15
0 1
Si         0.994164    1.532428    0.014467
Si        -1.213636    1.183728   -0.655905
C         1.713068   -0.205838    0.393298
O         2.365611   -0.603901    1.276039
H         1.161805    2.349701    1.229633
H         1.848096    2.048980   -1.074552
Cl         1.233594   -1.372277   -0.985047
C        -1.791705   -0.261159    0.483700
H        -1.331224    0.888838   -2.099515
H        -2.050239    2.362525   -0.335167
O        -1.342802   -0.247201    1.607641
C        -2.728985   -1.328387    0.009206
H        -2.251409   -1.879993   -0.804156
H        -3.636492   -0.879207   -0.400348
H        -2.975773   -2.007206    0.823379
