11
0 1
Si         1.876282   -0.400470   -0.048519
Si        -0.117389    0.821586    0.000564
C        -1.565361   -0.298637    0.472981
H        -0.423850    1.391224   -1.332879
H        -0.002925    1.917113    0.991359
H         2.111783   -1.026880    1.271613
H         3.015935    0.488378   -0.365819
N        -2.527154   -0.639575   -0.276891
H         1.793253   -1.463364   -1.074073
H        -2.453159   -0.216429   -1.203860
H        -1.583300   -0.716816    1.485375
